
 *******************************************************************************

         NASA-GLENN CHEMICAL EQUILIBRIUM PROGRAM CEA2, MAY 21, 2004
                   BY  BONNIE MCBRIDE AND SANFORD GORDON
      REFS: NASA RP-1311, PART I, 1994 AND NASA RP-1311, PART II, 1996

 *******************************************************************************



 problem
 o/f=5.0000,5.1429,5.2857,5.4286,5.5714,
 5.7143,5.8571,6.0000,6.1429,6.2857,
 6.4286,6.5714,6.7143,6.8571,7.0000,
 7.1429,7.2857,7.4286,7.5714,7.7143,
 7.8571,8.0000,8.1429,8.2857,8.4286,
 8.5714,8.7143,8.8571,9.0000,9.1429,
 9.2857,9.4286,9.5714,9.7143,9.8571,
 10.0000,10.1429,10.2857,10.4286,10.5714,
 10.7143,10.8571,11.0000,11.1429,11.2857,
 11.4286,11.5714,11.7143,11.8571,12.0000,
     rocket  eql
   p,bar=30.0000,
   pi/p=34.2015,
 react
   fuel=C32H66(a) wt=0.900 t,k=298.150
   fuel=stearic wt=0.100 t,k=298.150
   h,kj/mol=-912.000 C 18 H 36 O 2
   oxid=N2O(L),298.15K wt=1.000 t,k=298.150
 output siunits short
 end





              THEORETICAL ROCKET PERFORMANCE ASSUMING EQUILIBRIUM

           COMPOSITION DURING EXPANSION FROM INFINITE AREA COMBUSTOR

 Pin =   435.1 PSIA
 CASE =                

             REACTANT                    WT FRACTION      ENERGY      TEMP
                                          (SEE NOTE)     KJ/KG-MOL      K  
 FUEL        C32H66(a)                    0.9000000   -967800.000    298.150
 FUEL        stearic                      0.1000000   -912000.000    298.150
 OXIDANT     N2O(L),298.15K               1.0000000     65100.000    298.150

 O/F=    5.00000  %FUEL= 16.666667  R,EQ.RATIO= 1.859996  PHI,EQ.RATIO= 1.865318

                 CHAMBER   THROAT     EXIT
 Pinf/P            1.0000   1.7999   34.202
 P, BAR            30.000   16.667  0.87715
 T, K             2809.67  2516.19  1358.45
 RHO, KG/CU M    2.9979 0 1.8643 0 1.8201-1
 H, KJ/KG          857.18   300.68 -1671.87
 U, KJ/KG         -143.52  -593.37 -2153.80
 G, KJ/KG        -28585.7 -26066.7 -15907.3
 S, KJ/(KG)(K)    10.4791  10.4791  10.4791

 M, (1/n)          23.345   23.400   23.437
 (dLV/dLP)t      -1.00201 -1.00080 -1.00001
 (dLV/dLT)p        1.0420   1.0181   1.0000
 Cp, KJ/(KG)(K)    2.0514   1.8646   1.6443
 GAMMAs            1.2293   1.2449   1.2751
 SON VEL,M/SEC     1109.1   1055.0    783.9
 MACH NUMBER        0.000    1.000    2.869

 PERFORMANCE PARAMETERS

 Ae/At                     1.00000   4.8047
 CSTAR, M/SEC               1525.3   1525.3
 CF                         0.6917   1.4745
 Ivac, M/SEC                1902.4   2463.3
 Isp, M/SEC                 1055.0   2249.0


 MOLE FRACTIONS

 *CO              0.23990  0.23799  0.20958
 *CO2             0.03324  0.03580  0.06465
 *H               0.00581  0.00252  0.00000
 *H2              0.14082  0.14446  0.17440
 H2O              0.13630  0.13558  0.10762
 NH3              0.00001  0.00001  0.00000
 *NO              0.00024  0.00006  0.00000
 *N2              0.44187  0.44302  0.44375
 *O               0.00004  0.00001  0.00000
 *OH              0.00174  0.00055  0.00000
 *O2              0.00002  0.00000  0.00000

  * THERMODYNAMIC PROPERTIES FITTED TO 20000.K

 NOTE. WEIGHT FRACTION OF FUEL IN TOTAL FUELS AND OF OXIDANT IN TOTAL OXIDANTS










              THEORETICAL ROCKET PERFORMANCE ASSUMING EQUILIBRIUM

           COMPOSITION DURING EXPANSION FROM INFINITE AREA COMBUSTOR

 Pin =   435.1 PSIA
 CASE =                

             REACTANT                    WT FRACTION      ENERGY      TEMP
                                          (SEE NOTE)     KJ/KG-MOL      K  
 FUEL        C32H66(a)                    0.9000000   -967800.000    298.150
 FUEL        stearic                      0.1000000   -912000.000    298.150
 OXIDANT     N2O(L),298.15K               1.0000000     65100.000    298.150

 O/F=    5.14290  %FUEL= 16.278956  R,EQ.RATIO= 1.808623  PHI,EQ.RATIO= 1.813489

                 CHAMBER   THROAT     EXIT
 Pinf/P            1.0000   1.7969   34.202
 P, BAR            30.000   16.696  0.87715
 T, K             2858.05  2566.84  1394.41
 RHO, KG/CU M    2.9772 0 1.8500 0 1.7927-1
 H, KJ/KG          871.65   312.21 -1686.16
 U, KJ/KG         -136.01  -590.26 -2175.46
 G, KJ/KG        -28972.3 -26490.9 -16246.6
 S, KJ/(KG)(K)    10.4421  10.4421  10.4421

 M, (1/n)          23.583   23.648   23.694
 (dLV/dLP)t      -1.00242 -1.00099 -1.00000
 (dLV/dLT)p        1.0503   1.0224   1.0000
 Cp, KJ/(KG)(K)    2.1018   1.8904   1.6371
 GAMMAs            1.2234   1.2398   1.2728
 SON VEL,M/SEC     1110.3   1057.8    789.2
 MACH NUMBER        0.000    1.000    2.866

 PERFORMANCE PARAMETERS

 Ae/At                      1.0000   4.8263
 CSTAR, M/SEC               1533.1   1533.1
 CF                         0.6900   1.4753
 Ivac, M/SEC                1911.0   2478.1
 Isp, M/SEC                 1057.8   2261.8


 MOLE FRACTIONS

 *CO              0.23335  0.23148  0.20364
 *CO2             0.03615  0.03878  0.06715
 *H               0.00659  0.00300  0.00000
 *H2              0.12989  0.13345  0.16300
 H2O              0.14281  0.14260  0.11548
 NH3              0.00001  0.00001  0.00000
 *NO              0.00036  0.00009  0.00000
 *N2              0.44840  0.44979  0.45071
 *O               0.00007  0.00001  0.00000
 *OH              0.00233  0.00079  0.00000
 *O2              0.00003  0.00000  0.00000

  * THERMODYNAMIC PROPERTIES FITTED TO 20000.K

 NOTE. WEIGHT FRACTION OF FUEL IN TOTAL FUELS AND OF OXIDANT IN TOTAL OXIDANTS










              THEORETICAL ROCKET PERFORMANCE ASSUMING EQUILIBRIUM

           COMPOSITION DURING EXPANSION FROM INFINITE AREA COMBUSTOR

 Pin =   435.1 PSIA
 CASE =                

             REACTANT                    WT FRACTION      ENERGY      TEMP
                                          (SEE NOTE)     KJ/KG-MOL      K  
 FUEL        C32H66(a)                    0.9000000   -967800.000    298.150
 FUEL        stearic                      0.1000000   -912000.000    298.150
 OXIDANT     N2O(L),298.15K               1.0000000     65100.000    298.150

 O/F=    5.28570  %FUEL= 15.909127  R,EQ.RATIO= 1.760046  PHI,EQ.RATIO= 1.764495

                 CHAMBER   THROAT     EXIT
 Pinf/P            1.0000   1.7937   34.202
 P, BAR            30.000   16.725  0.87715
 T, K             2903.12  2615.00  1429.45
 RHO, KG/CU M    2.9594 0 1.8376 0 1.7672-1
 H, KJ/KG          885.45   323.63 -1699.20
 U, KJ/KG         -128.26  -586.53 -2195.54
 G, KJ/KG        -29323.3 -26887.0 -16573.5
 S, KJ/(KG)(K)    10.4056  10.4056  10.4056

 M, (1/n)          23.812   23.888   23.946
 (dLV/dLP)t      -1.00288 -1.00122 -1.00000
 (dLV/dLT)p        1.0596   1.0273   1.0000
 Cp, KJ/(KG)(K)    2.1596   1.9212   1.6303
 GAMMAs            1.2175   1.2345   1.2706
 SON VEL,M/SEC     1111.0   1060.0    794.1
 MACH NUMBER        0.000    1.000    2.863

 PERFORMANCE PARAMETERS

 Ae/At                      1.0000   4.8478
 CSTAR, M/SEC               1540.1   1540.1
 CF                         0.6883   1.4762
 Ivac, M/SEC                1918.7   2491.9
 Isp, M/SEC                 1060.0   2273.6


 MOLE FRACTIONS

 *CO              0.22676  0.22489  0.19771
 *CO2             0.03918  0.04191  0.06973
 *H               0.00734  0.00350  0.00000
 *H2              0.11959  0.12299  0.15204
 H2O              0.14871  0.14910  0.12300
 NH3              0.00001  0.00000  0.00000
 *NO              0.00051  0.00014  0.00000
 *N2              0.45468  0.45634  0.45750
 *O               0.00011  0.00002  0.00000
 *OH              0.00305  0.00109  0.00000
 *O2              0.00005  0.00001  0.00000

  * THERMODYNAMIC PROPERTIES FITTED TO 20000.K

 NOTE. WEIGHT FRACTION OF FUEL IN TOTAL FUELS AND OF OXIDANT IN TOTAL OXIDANTS










              THEORETICAL ROCKET PERFORMANCE ASSUMING EQUILIBRIUM

           COMPOSITION DURING EXPANSION FROM INFINITE AREA COMBUSTOR

 Pin =   435.1 PSIA
 CASE =                

             REACTANT                    WT FRACTION      ENERGY      TEMP
                                          (SEE NOTE)     KJ/KG-MOL      K  
 FUEL        C32H66(a)                    0.9000000   -967800.000    298.150
 FUEL        stearic                      0.1000000   -912000.000    298.150
 OXIDANT     N2O(L),298.15K               1.0000000     65100.000    298.150

 O/F=    5.42860  %FUEL= 15.555486  R,EQ.RATIO= 1.713978  PHI,EQ.RATIO= 1.718047

                 CHAMBER   THROAT     EXIT
 Pinf/P            1.0000   1.7905   34.202
 P, BAR            30.000   16.755  0.87715
 T, K             2944.97  2660.74  1463.69
 RHO, KG/CU M    2.9444 0 1.8268 0 1.7436-1
 H, KJ/KG          898.65   334.98 -1711.11
 U, KJ/KG         -120.25  -582.19 -2214.19
 G, KJ/KG        -29639.7 -27256.0 -16889.1
 S, KJ/(KG)(K)    10.3697  10.3697  10.3697

 M, (1/n)          24.032   24.121   24.191
 (dLV/dLP)t      -1.00340 -1.00148 -1.00000
 (dLV/dLT)p        1.0703   1.0331   1.0001
 Cp, KJ/(KG)(K)    2.2256   1.9577   1.6239
 GAMMAs            1.2116   1.2292   1.2685
 SON VEL,M/SEC     1111.1   1061.8    798.9
 MACH NUMBER        0.000    1.000    2.860

 PERFORMANCE PARAMETERS

 Ae/At                      1.0000   4.8694
 CSTAR, M/SEC               1546.7   1546.7
 CF                         0.6865   1.4771
 Ivac, M/SEC                1925.6   2504.8
 Isp, M/SEC                 1061.8   2284.6


 MOLE FRACTIONS

 *CO              0.22011  0.21822  0.19176
 *CO2             0.04233  0.04518  0.07241
 *H               0.00806  0.00402  0.00000
 *H2              0.10991  0.11307  0.14150
 H2O              0.15400  0.15507  0.13019
 NH3              0.00001  0.00000  0.00000
 *NO              0.00071  0.00021  0.00000
 *N2              0.46072  0.46268  0.46413
 *O               0.00016  0.00003  0.00000
 *OH              0.00390  0.00149  0.00000
 *O2              0.00009  0.00002  0.00000

  * THERMODYNAMIC PROPERTIES FITTED TO 20000.K

 NOTE. WEIGHT FRACTION OF FUEL IN TOTAL FUELS AND OF OXIDANT IN TOTAL OXIDANTS










              THEORETICAL ROCKET PERFORMANCE ASSUMING EQUILIBRIUM

           COMPOSITION DURING EXPANSION FROM INFINITE AREA COMBUSTOR

 Pin =   435.1 PSIA
 CASE =                

             REACTANT                    WT FRACTION      ENERGY      TEMP
                                          (SEE NOTE)     KJ/KG-MOL      K  
 FUEL        C32H66(a)                    0.9000000   -967800.000    298.150
 FUEL        stearic                      0.1000000   -912000.000    298.150
 OXIDANT     N2O(L),298.15K               1.0000000     65100.000    298.150

 O/F=    5.57140  %FUEL= 15.217457  R,EQ.RATIO= 1.670289  PHI,EQ.RATIO= 1.674012

                 CHAMBER   THROAT     EXIT
 Pinf/P            1.0000   1.7871   34.202
 P, BAR            30.000   16.787  0.87715
 T, K             2983.54  2703.99  1497.13
 RHO, KG/CU M    2.9318 0 1.8177 0 1.7215-1
 H, KJ/KG          911.26   346.26 -1721.94
 U, KJ/KG         -111.99  -577.23 -2231.48
 G, KJ/KG        -29921.9 -27597.8 -17193.9
 S, KJ/(KG)(K)    10.3344  10.3344  10.3344

 M, (1/n)          24.243   24.345   24.430
 (dLV/dLP)t      -1.00399 -1.00178 -1.00000
 (dLV/dLT)p        1.0822   1.0398   1.0001
 Cp, KJ/(KG)(K)    2.3005   2.0009   1.6178
 GAMMAs            1.2057   1.2236   1.2665
 SON VEL,M/SEC     1110.7   1063.0    803.3
 MACH NUMBER        0.000    1.000    2.857

 PERFORMANCE PARAMETERS

 Ae/At                      1.0000   4.8911
 CSTAR, M/SEC               1552.6   1552.6
 CF                         0.6847   1.4781
 Ivac, M/SEC                1931.8   2516.9
 Isp, M/SEC                 1063.0   2294.9


 MOLE FRACTIONS

 *CO              0.21342  0.21148  0.18579
 *CO2             0.04556  0.04860  0.07520
 *H               0.00872  0.00454  0.00001
 *H2              0.10088  0.10372  0.13139
 H2O              0.15867  0.16049  0.13701
 *NO              0.00095  0.00030  0.00000
 *N2              0.46651  0.46880  0.47059
 *O               0.00024  0.00005  0.00000
 *OH              0.00487  0.00197  0.00000
 *O2              0.00015  0.00003  0.00000

  * THERMODYNAMIC PROPERTIES FITTED TO 20000.K

 NOTE. WEIGHT FRACTION OF FUEL IN TOTAL FUELS AND OF OXIDANT IN TOTAL OXIDANTS










              THEORETICAL ROCKET PERFORMANCE ASSUMING EQUILIBRIUM

           COMPOSITION DURING EXPANSION FROM INFINITE AREA COMBUSTOR

 Pin =   435.1 PSIA
 CASE =                

             REACTANT                    WT FRACTION      ENERGY      TEMP
                                          (SEE NOTE)     KJ/KG-MOL      K  
 FUEL        C32H66(a)                    0.9000000   -967800.000    298.150
 FUEL        stearic                      0.1000000   -912000.000    298.150
 OXIDANT     N2O(L),298.15K               1.0000000     65100.000    298.150

 O/F=    5.71430  %FUEL= 14.893585  R,EQ.RATIO= 1.628745  PHI,EQ.RATIO= 1.632149

                 CHAMBER   THROAT     EXIT
 Pinf/P            1.0000   1.7837   34.202
 P, BAR            30.000   16.819  0.87715
 T, K             3018.92  2744.79  1529.89
 RHO, KG/CU M    2.9217 0 1.8101 0 1.7007-1
 H, KJ/KG          923.35   357.53 -1731.76
 U, KJ/KG         -103.46  -571.65 -2247.52
 G, KJ/KG        -30170.7 -27913.1 -17489.2
 S, KJ/(KG)(K)    10.2997  10.2997  10.2997

 M, (1/n)          24.446   24.561   24.663
 (dLV/dLP)t      -1.00464 -1.00214 -1.00000
 (dLV/dLT)p        1.0957   1.0475   1.0001
 Cp, KJ/(KG)(K)    2.3846   2.0519   1.6121
 GAMMAs            1.1999   1.2179   1.2645
 SON VEL,M/SEC     1110.0   1063.8    807.6
 MACH NUMBER        0.000    1.000    2.854

 PERFORMANCE PARAMETERS

 Ae/At                      1.0000   4.9132
 CSTAR, M/SEC               1558.0   1558.0
 CF                         0.6828   1.4791
 Ivac, M/SEC                1937.2   2528.2
 Isp, M/SEC                 1063.8   2304.4


 MOLE FRACTIONS

 *CO              0.20671  0.20464  0.17976
 *CO2             0.04888  0.05216  0.07812
 *H               0.00930  0.00505  0.00001
 *H2              0.09249  0.09495  0.12171
 H2O              0.16273  0.16535  0.14349
 *NO              0.00126  0.00043  0.00000
 *N2              0.47206  0.47471  0.47691
 *O               0.00034  0.00008  0.00000
 *OH              0.00597  0.00257  0.00000
 *O2              0.00023  0.00006  0.00000

  * THERMODYNAMIC PROPERTIES FITTED TO 20000.K

 NOTE. WEIGHT FRACTION OF FUEL IN TOTAL FUELS AND OF OXIDANT IN TOTAL OXIDANTS










              THEORETICAL ROCKET PERFORMANCE ASSUMING EQUILIBRIUM

           COMPOSITION DURING EXPANSION FROM INFINITE AREA COMBUSTOR

 Pin =   435.1 PSIA
 CASE =                

             REACTANT                    WT FRACTION      ENERGY      TEMP
                                          (SEE NOTE)     KJ/KG-MOL      K  
 FUEL        C32H66(a)                    0.9000000   -967800.000    298.150
 FUEL        stearic                      0.1000000   -912000.000    298.150
 OXIDANT     N2O(L),298.15K               1.0000000     65100.000    298.150

 O/F=    5.85710  %FUEL= 14.583424  R,EQ.RATIO= 1.589243  PHI,EQ.RATIO= 1.592356

                 CHAMBER   THROAT     EXIT
 Pinf/P            1.0000   1.7801   34.202
 P, BAR            30.000   16.853  0.87715
 T, K             3051.07  2783.03  1561.96
 RHO, KG/CU M    2.9138 0 1.8040 0 1.6812-1
 H, KJ/KG          934.92   368.79 -1740.61
 U, KJ/KG         -94.667  -565.42 -2262.36
 G, KJ/KG        -30386.7 -28201.2 -17775.3
 S, KJ/(KG)(K)    10.2658  10.2658  10.2658

 M, (1/n)          24.639   24.769   24.891
 (dLV/dLP)t      -1.00538 -1.00255 -1.00000
 (dLV/dLT)p        1.1106   1.0566   1.0001
 Cp, KJ/(KG)(K)    2.4782   2.1115   1.6067
 GAMMAs            1.1942   1.2120   1.2625
 SON VEL,M/SEC     1108.8   1064.1    811.6
 MACH NUMBER        0.000    1.000    2.850

 PERFORMANCE PARAMETERS

 Ae/At                      1.0000   4.9359
 CSTAR, M/SEC               1562.9   1562.9
 CF                         0.6809   1.4801
 Ivac, M/SEC                1942.0   2538.8
 Isp, M/SEC                 1064.1   2313.2


 MOLE FRACTIONS

 *CO              0.20000  0.19774  0.17368
 *CO2             0.05226  0.05584  0.08116
 *H               0.00981  0.00554  0.00001
 *H2              0.08475  0.08676  0.11246
 H2O              0.16618  0.16963  0.14962
 *NO              0.00164  0.00059  0.00000
 *N2              0.47735  0.48040  0.48307
 *O               0.00047  0.00012  0.00000
 *OH              0.00718  0.00327  0.00000
 *O2              0.00036  0.00009  0.00000

  * THERMODYNAMIC PROPERTIES FITTED TO 20000.K

 NOTE. WEIGHT FRACTION OF FUEL IN TOTAL FUELS AND OF OXIDANT IN TOTAL OXIDANTS










              THEORETICAL ROCKET PERFORMANCE ASSUMING EQUILIBRIUM

           COMPOSITION DURING EXPANSION FROM INFINITE AREA COMBUSTOR

 Pin =   435.1 PSIA
 CASE =                

             REACTANT                    WT FRACTION      ENERGY      TEMP
                                          (SEE NOTE)     KJ/KG-MOL      K  
 FUEL        C32H66(a)                    0.9000000   -967800.000    298.150
 FUEL        stearic                      0.1000000   -912000.000    298.150
 OXIDANT     N2O(L),298.15K               1.0000000     65100.000    298.150

 O/F=    6.00000  %FUEL= 14.285714  R,EQ.RATIO= 1.551587  PHI,EQ.RATIO= 1.554432

                 CHAMBER   THROAT     EXIT
 Pinf/P            1.0000   1.7764   34.202
 P, BAR            30.000   16.888  0.87715
 T, K             3080.10  2818.71  1593.44
 RHO, KG/CU M    2.9080 0 1.7992 0 1.6627-1
 H, KJ/KG          946.03   380.06 -1748.53
 U, KJ/KG         -85.609  -558.54 -2276.08
 G, KJ/KG        -30570.9 -28462.2 -18053.3
 S, KJ/(KG)(K)    10.2324  10.2324  10.2324

 M, (1/n)          24.824   24.969   25.114
 (dLV/dLP)t      -1.00618 -1.00303 -1.00001
 (dLV/dLT)p        1.1271   1.0670   1.0002
 Cp, KJ/(KG)(K)    2.5807   2.1811   1.6017
 GAMMAs            1.1886   1.2060   1.2607
 SON VEL,M/SEC     1107.3   1063.9    815.5
 MACH NUMBER        0.000    1.000    2.847

 PERFORMANCE PARAMETERS

 Ae/At                      1.0000   4.9594
 CSTAR, M/SEC               1567.2   1567.2
 CF                         0.6789   1.4813
 Ivac, M/SEC                1946.1   2548.7
 Isp, M/SEC                 1063.9   2321.4


 MOLE FRACTIONS

 *CO              0.19329  0.19078  0.16752
 *CO2             0.05566  0.05963  0.08435
 *H               0.01022  0.00599  0.00002
 *H2              0.07763  0.07915  0.10363
 H2O              0.16905  0.17335  0.15539
 *NO              0.00207  0.00081  0.00000
 *N2              0.48240  0.48587  0.48909
 *O               0.00062  0.00018  0.00000
 *OH              0.00849  0.00408  0.00000
 *O2              0.00054  0.00016  0.00000

  * THERMODYNAMIC PROPERTIES FITTED TO 20000.K

 NOTE. WEIGHT FRACTION OF FUEL IN TOTAL FUELS AND OF OXIDANT IN TOTAL OXIDANTS










              THEORETICAL ROCKET PERFORMANCE ASSUMING EQUILIBRIUM

           COMPOSITION DURING EXPANSION FROM INFINITE AREA COMBUSTOR

 Pin =   435.1 PSIA
 CASE =                

             REACTANT                    WT FRACTION      ENERGY      TEMP
                                          (SEE NOTE)     KJ/KG-MOL      K  
 FUEL        C32H66(a)                    0.9000000   -967800.000    298.150
 FUEL        stearic                      0.1000000   -912000.000    298.150
 OXIDANT     N2O(L),298.15K               1.0000000     65100.000    298.150

 O/F=    6.14290  %FUEL= 13.999916  R,EQ.RATIO= 1.515674  PHI,EQ.RATIO= 1.518272

                 CHAMBER   THROAT     EXIT
 Pinf/P            1.0000   1.7727   34.202
 P, BAR            30.000   16.924  0.87715
 T, K             3106.04  2851.72  1624.37
 RHO, KG/CU M    2.9042 0 1.7959 0 1.6452-1
 H, KJ/KG          956.70   391.34 -1755.55
 U, KJ/KG         -76.299  -551.02 -2288.72
 G, KJ/KG        -30724.3 -28695.6 -18323.8
 S, KJ/(KG)(K)    10.1998  10.1998  10.1998

 M, (1/n)          25.000   25.161   25.331
 (dLV/dLP)t      -1.00706 -1.00358 -1.00001
 (dLV/dLT)p        1.1449   1.0791   1.0002
 Cp, KJ/(KG)(K)    2.6914   2.2614   1.5970
 GAMMAs            1.1833   1.1999   1.2588
 SON VEL,M/SEC     1105.6   1063.3    819.2
 MACH NUMBER        0.000    1.000    2.843

 PERFORMANCE PARAMETERS

 Ae/At                      1.0000   4.9838
 CSTAR, M/SEC               1571.0   1571.0
 CF                         0.6769   1.4826
 Ivac, M/SEC                1949.6   2558.0
 Isp, M/SEC                 1063.3   2329.1


 MOLE FRACTIONS

 *CO              0.18664  0.18379  0.16129
 *CO2             0.05907  0.06350  0.08768
 *H               0.01055  0.00640  0.00002
 *H2              0.07112  0.07213  0.09523
 H2O              0.17136  0.17649  0.16081
 *NO              0.00258  0.00107  0.00000
 *N2              0.48720  0.49110  0.49497
 *O               0.00082  0.00025  0.00000
 *OH              0.00987  0.00501  0.00000
 *O2              0.00077  0.00025  0.00000

  * THERMODYNAMIC PROPERTIES FITTED TO 20000.K

 NOTE. WEIGHT FRACTION OF FUEL IN TOTAL FUELS AND OF OXIDANT IN TOTAL OXIDANTS










              THEORETICAL ROCKET PERFORMANCE ASSUMING EQUILIBRIUM

           COMPOSITION DURING EXPANSION FROM INFINITE AREA COMBUSTOR

 Pin =   435.1 PSIA
 CASE =                

             REACTANT                    WT FRACTION      ENERGY      TEMP
                                          (SEE NOTE)     KJ/KG-MOL      K  
 FUEL        C32H66(a)                    0.9000000   -967800.000    298.150
 FUEL        stearic                      0.1000000   -912000.000    298.150
 OXIDANT     N2O(L),298.15K               1.0000000     65100.000    298.150

 O/F=    6.28570  %FUEL= 13.725517  R,EQ.RATIO= 1.481409  PHI,EQ.RATIO= 1.483779

                 CHAMBER   THROAT     EXIT
 Pinf/P            1.0000   1.7689   34.202
 P, BAR            30.000   16.960  0.87715
 T, K             3128.99  2881.96  1654.77
 RHO, KG/CU M    2.9022 0 1.7938 0 1.6285-1
 H, KJ/KG          966.94   402.60 -1761.68
 U, KJ/KG         -66.761  -542.86 -2300.31
 G, KJ/KG        -30848.2 -28900.8 -18587.1
 S, KJ/(KG)(K)    10.1679  10.1679  10.1679

 M, (1/n)          25.168   25.344   25.544
 (dLV/dLP)t      -1.00800 -1.00420 -1.00001
 (dLV/dLT)p        1.1639   1.0929   1.0003
 Cp, KJ/(KG)(K)    2.8085   2.3530   1.5927
 GAMMAs            1.1783   1.1938   1.2570
 SON VEL,M/SEC     1103.7   1062.4    822.8
 MACH NUMBER        0.000    1.000    2.839

 PERFORMANCE PARAMETERS

 Ae/At                      1.0000   5.0094
 CSTAR, M/SEC               1574.2   1574.2
 CF                         0.6749   1.4840
 Ivac, M/SEC                1952.3   2566.6
 Isp, M/SEC                 1062.4   2336.1


 MOLE FRACTIONS

 *CO              0.18006  0.17680  0.15497
 *CO2             0.06245  0.06741  0.09117
 *H               0.01078  0.00675  0.00003
 *H2              0.06521  0.06569  0.08725
 H2O              0.17315  0.17907  0.16587
 *NO              0.00315  0.00139  0.00000
 *N2              0.49176  0.49610  0.50071
 *O               0.00104  0.00035  0.00000
 *OH              0.01129  0.00604  0.00000
 *O2              0.00108  0.00038  0.00000

  * THERMODYNAMIC PROPERTIES FITTED TO 20000.K

 NOTE. WEIGHT FRACTION OF FUEL IN TOTAL FUELS AND OF OXIDANT IN TOTAL OXIDANTS










              THEORETICAL ROCKET PERFORMANCE ASSUMING EQUILIBRIUM

           COMPOSITION DURING EXPANSION FROM INFINITE AREA COMBUSTOR

 Pin =   435.1 PSIA
 CASE =                

             REACTANT                    WT FRACTION      ENERGY      TEMP
                                          (SEE NOTE)     KJ/KG-MOL      K  
 FUEL        C32H66(a)                    0.9000000   -967800.000    298.150
 FUEL        stearic                      0.1000000   -912000.000    298.150
 OXIDANT     N2O(L),298.15K               1.0000000     65100.000    298.150

 O/F=    6.42860  %FUEL= 13.461487  R,EQ.RATIO= 1.448637  PHI,EQ.RATIO= 1.450797

                 CHAMBER   THROAT     EXIT
 Pinf/P            1.0000   1.7651   34.202
 P, BAR            30.000   16.996  0.87715
 T, K             3149.12  2909.43  1684.73
 RHO, KG/CU M    2.9019 0 1.7929 0 1.6125-1
 H, KJ/KG          976.79   413.84 -1766.95
 U, KJ/KG         -57.009  -534.10 -2310.91
 G, KJ/KG        -30944.5 -29077.9 -18844.4
 S, KJ/(KG)(K)    10.1366  10.1366  10.1366

 M, (1/n)          25.327   25.519   25.751
 (dLV/dLP)t      -1.00898 -1.00491 -1.00001
 (dLV/dLT)p        1.1838   1.1084   1.0004
 Cp, KJ/(KG)(K)    2.9301   2.4559   1.5887
 GAMMAs            1.1738   1.1877   1.2553
 SON VEL,M/SEC     1101.6   1061.1    826.3
 MACH NUMBER        0.000    1.000    2.835

 PERFORMANCE PARAMETERS

 Ae/At                      1.0000   5.0364
 CSTAR, M/SEC               1576.9   1576.9
 CF                         0.6729   1.4855
 Ivac, M/SEC                1954.4   2574.7
 Isp, M/SEC                 1061.1   2342.5


 MOLE FRACTIONS

 *CO              0.17357  0.16984  0.14855
 *CO2             0.06578  0.07133  0.09481
 *H               0.01093  0.00704  0.00004
 *H2              0.05984  0.05981  0.07968
 H2O              0.17447  0.18111  0.17058
 *NO              0.00377  0.00178  0.00000
 *N2              0.49609  0.50087  0.50633
 *O               0.00129  0.00048  0.00000
 *OH              0.01274  0.00716  0.00000
 *O2              0.00148  0.00058  0.00000

  * THERMODYNAMIC PROPERTIES FITTED TO 20000.K

 NOTE. WEIGHT FRACTION OF FUEL IN TOTAL FUELS AND OF OXIDANT IN TOTAL OXIDANTS










              THEORETICAL ROCKET PERFORMANCE ASSUMING EQUILIBRIUM

           COMPOSITION DURING EXPANSION FROM INFINITE AREA COMBUSTOR

 Pin =   435.1 PSIA
 CASE =                

             REACTANT                    WT FRACTION      ENERGY      TEMP
                                          (SEE NOTE)     KJ/KG-MOL      K  
 FUEL        C32H66(a)                    0.9000000   -967800.000    298.150
 FUEL        stearic                      0.1000000   -912000.000    298.150
 OXIDANT     N2O(L),298.15K               1.0000000     65100.000    298.150

 O/F=    6.57140  %FUEL= 13.207597  R,EQ.RATIO= 1.417305  PHI,EQ.RATIO= 1.419270

                 CHAMBER   THROAT     EXIT
 Pinf/P            1.0000   1.7615   34.202
 P, BAR            30.000   17.031  0.87715
 T, K             3166.55  2934.06  1714.27
 RHO, KG/CU M    2.9032 0 1.7932 0 1.5972-1
 H, KJ/KG          986.26   424.99 -1771.36
 U, KJ/KG         -47.085  -524.78 -2320.53
 G, KJ/KG        -31015.0 -29226.7 -19095.8
 S, KJ/(KG)(K)    10.1060  10.1060  10.1060

 M, (1/n)          25.479   25.685   25.954
 (dLV/dLP)t      -1.00999 -1.00570 -1.00001
 (dLV/dLT)p        1.2042   1.1256   1.0005
 Cp, KJ/(KG)(K)    3.0536   2.5693   1.5852
 GAMMAs            1.1696   1.1819   1.2535
 SON VEL,M/SEC     1099.3   1059.5    829.7
 MACH NUMBER        0.000    1.000    2.830

 PERFORMANCE PARAMETERS

 Ae/At                      1.0000   5.0650
 CSTAR, M/SEC               1579.0   1579.0
 CF                         0.6710   1.4873
 Ivac, M/SEC                1955.9   2582.3
 Isp, M/SEC                 1059.5   2348.5


 MOLE FRACTIONS

 *CO              0.16722  0.16295  0.14204
 *CO2             0.06902  0.07521  0.09861
 *H               0.01100  0.00727  0.00005
 HO2              0.00001  0.00000  0.00000
 *H2              0.05499  0.05448  0.07252
 H2O              0.17537  0.18264  0.17495
 *NO              0.00446  0.00223  0.00000
 *N2              0.50020  0.50540  0.51182
 *O               0.00157  0.00063  0.00000
 *OH              0.01418  0.00834  0.00001
 *O2              0.00196  0.00084  0.00000

  * THERMODYNAMIC PROPERTIES FITTED TO 20000.K

 NOTE. WEIGHT FRACTION OF FUEL IN TOTAL FUELS AND OF OXIDANT IN TOTAL OXIDANTS










              THEORETICAL ROCKET PERFORMANCE ASSUMING EQUILIBRIUM

           COMPOSITION DURING EXPANSION FROM INFINITE AREA COMBUSTOR

 Pin =   435.1 PSIA
 CASE =                

             REACTANT                    WT FRACTION      ENERGY      TEMP
                                          (SEE NOTE)     KJ/KG-MOL      K  
 FUEL        C32H66(a)                    0.9000000   -967800.000    298.150
 FUEL        stearic                      0.1000000   -912000.000    298.150
 OXIDANT     N2O(L),298.15K               1.0000000     65100.000    298.150

 O/F=    6.71430  %FUEL= 12.962939  R,EQ.RATIO= 1.387279  PHI,EQ.RATIO= 1.389064

                 CHAMBER   THROAT     EXIT
 Pinf/P            1.0000   1.7580   34.202
 P, BAR            30.000   17.065  0.87715
 T, K             3181.51  2955.90  1743.46
 RHO, KG/CU M    2.9058 0 1.7944 0 1.5825-1
 H, KJ/KG          995.39   436.02 -1774.92
 U, KJ/KG         -37.014  -514.97 -2329.20
 G, KJ/KG        -31061.9 -29348.0 -19342.2
 S, KJ/(KG)(K)    10.0761  10.0761  10.0761

 M, (1/n)          25.622   25.843   26.153
 (dLV/dLP)t      -1.01102 -1.00656 -1.00002
 (dLV/dLT)p        1.2248   1.1443   1.0006
 Cp, KJ/(KG)(K)    3.1766   2.6915   1.5820
 GAMMAs            1.1658   1.1764   1.2518
 SON VEL,M/SEC     1097.1   1057.7    833.0
 MACH NUMBER        0.000    1.000    2.826

 PERFORMANCE PARAMETERS

 Ae/At                      1.0000   5.0953
 CSTAR, M/SEC               1580.6   1580.6
 CF                         0.6692   1.4892
 Ivac, M/SEC                1956.8   2589.3
 Isp, M/SEC                 1057.7   2353.9


 MOLE FRACTIONS

 *CO              0.16100  0.15616  0.13543
 *CO2             0.07217  0.07903  0.10258
 *H               0.01099  0.00744  0.00006
 HO2              0.00001  0.00000  0.00000
 *H2              0.05061  0.04966  0.06577
 H2O              0.17589  0.18370  0.17897
 *N               0.00001  0.00000  0.00000
 *NO              0.00518  0.00273  0.00000
 *N2              0.50409  0.50969  0.51718
 *O               0.00188  0.00081  0.00000
 *OH              0.01560  0.00957  0.00001
 *O2              0.00255  0.00119  0.00000

  * THERMODYNAMIC PROPERTIES FITTED TO 20000.K

 NOTE. WEIGHT FRACTION OF FUEL IN TOTAL FUELS AND OF OXIDANT IN TOTAL OXIDANTS










              THEORETICAL ROCKET PERFORMANCE ASSUMING EQUILIBRIUM

           COMPOSITION DURING EXPANSION FROM INFINITE AREA COMBUSTOR

 Pin =   435.1 PSIA
 CASE =                

             REACTANT                    WT FRACTION      ENERGY      TEMP
                                          (SEE NOTE)     KJ/KG-MOL      K  
 FUEL        C32H66(a)                    0.9000000   -967800.000    298.150
 FUEL        stearic                      0.1000000   -912000.000    298.150
 OXIDANT     N2O(L),298.15K               1.0000000     65100.000    298.150

 O/F=    6.85710  %FUEL= 12.727342  R,EQ.RATIO= 1.358519  PHI,EQ.RATIO= 1.360136

                 CHAMBER   THROAT     EXIT
 Pinf/P            1.0000   1.7547   34.202
 P, BAR            30.000   17.097  0.87715
 T, K             3194.17  2974.98  1772.30
 RHO, KG/CU M    2.9097 0 1.7966 0 1.5683-1
 H, KJ/KG         1004.18   446.87 -1777.63
 U, KJ/KG         -26.846  -504.75 -2336.93
 G, KJ/KG        -31087.4 -29442.6 -19583.8
 S, KJ/(KG)(K)    10.0469  10.0469  10.0469

 M, (1/n)          25.759   25.993   26.347
 (dLV/dLP)t      -1.01203 -1.00748 -1.00002
 (dLV/dLT)p        1.2450   1.1641   1.0007
 Cp, KJ/(KG)(K)    3.2963   2.8200   1.5794
 GAMMAs            1.1625   1.1713   1.2501
 SON VEL,M/SEC     1094.8   1055.8    836.2
 MACH NUMBER        0.000    1.000    2.821

 PERFORMANCE PARAMETERS

 Ae/At                      1.0000   5.1274
 CSTAR, M/SEC               1581.7   1581.7
 CF                         0.6675   1.4913
 Ivac, M/SEC                1957.1   2595.9
 Isp, M/SEC                 1055.8   2358.7


 MOLE FRACTIONS

 *CO              0.15496  0.14952  0.12871
 *CO2             0.07519  0.08273  0.10671
 *H               0.01092  0.00754  0.00007
 HO2              0.00001  0.00000  0.00000
 *H2              0.04666  0.04533  0.05941
 H2O              0.17607  0.18434  0.18265
 *N               0.00001  0.00000  0.00000
 *NO              0.00595  0.00330  0.00000
 *N2              0.50778  0.51376  0.52243
 *O               0.00220  0.00101  0.00000
 *OH              0.01698  0.01082  0.00002
 *O2              0.00325  0.00163  0.00000

  * THERMODYNAMIC PROPERTIES FITTED TO 20000.K

 NOTE. WEIGHT FRACTION OF FUEL IN TOTAL FUELS AND OF OXIDANT IN TOTAL OXIDANTS










              THEORETICAL ROCKET PERFORMANCE ASSUMING EQUILIBRIUM

           COMPOSITION DURING EXPANSION FROM INFINITE AREA COMBUSTOR

 Pin =   435.1 PSIA
 CASE =                

             REACTANT                    WT FRACTION      ENERGY      TEMP
                                          (SEE NOTE)     KJ/KG-MOL      K  
 FUEL        C32H66(a)                    0.9000000   -967800.000    298.150
 FUEL        stearic                      0.1000000   -912000.000    298.150
 OXIDANT     N2O(L),298.15K               1.0000000     65100.000    298.150

 O/F=    7.00000  %FUEL= 12.500000  R,EQ.RATIO= 1.330907  PHI,EQ.RATIO= 1.332370

                 CHAMBER   THROAT     EXIT
 Pinf/P            1.0000   1.7518   34.202
 P, BAR            30.000   17.126  0.87715
 T, K             3204.75  2991.45  1800.88
 RHO, KG/CU M    2.9147 0 1.7995 0 1.5545-1
 H, KJ/KG         1012.67   457.53 -1779.49
 U, KJ/KG         -16.605  -494.17 -2343.74
 G, KJ/KG        -31093.7 -29511.9 -19821.4
 S, KJ/(KG)(K)    10.0184  10.0184  10.0184

 M, (1/n)          25.888   26.135   26.537
 (dLV/dLP)t      -1.01300 -1.00844 -1.00003
 (dLV/dLT)p        1.2645   1.1847   1.0009
 Cp, KJ/(KG)(K)    3.4105   2.9519   1.5773
 GAMMAs            1.1595   1.1666   1.2484
 SON VEL,M/SEC     1092.5   1053.7    839.3
 MACH NUMBER        0.000    1.000    2.816

 PERFORMANCE PARAMETERS

 Ae/At                      1.0000   5.1615
 CSTAR, M/SEC               1582.2   1582.2
 CF                         0.6660   1.4936
 Ivac, M/SEC                1956.9   2601.9
 Isp, M/SEC                 1053.7   2363.1


 MOLE FRACTIONS

 *CO              0.14909  0.14304  0.12188
 *CO2             0.07809  0.08630  0.11100
 *H               0.01080  0.00758  0.00009
 HO2              0.00001  0.00000  0.00000
 *H2              0.04310  0.04144  0.05344
 H2O              0.17598  0.18460  0.18600
 *N               0.00001  0.00000  0.00000
 *NO              0.00674  0.00391  0.00000
 *N2              0.51129  0.51761  0.52757
 *O               0.00254  0.00124  0.00000
 *OH              0.01830  0.01207  0.00002
 *O2              0.00405  0.00219  0.00000

  * THERMODYNAMIC PROPERTIES FITTED TO 20000.K

 NOTE. WEIGHT FRACTION OF FUEL IN TOTAL FUELS AND OF OXIDANT IN TOTAL OXIDANTS










              THEORETICAL ROCKET PERFORMANCE ASSUMING EQUILIBRIUM

           COMPOSITION DURING EXPANSION FROM INFINITE AREA COMBUSTOR

 Pin =   435.1 PSIA
 CASE =                

             REACTANT                    WT FRACTION      ENERGY      TEMP
                                          (SEE NOTE)     KJ/KG-MOL      K  
 FUEL        C32H66(a)                    0.9000000   -967800.000    298.150
 FUEL        stearic                      0.1000000   -912000.000    298.150
 OXIDANT     N2O(L),298.15K               1.0000000     65100.000    298.150

 O/F=    7.14290  %FUEL= 12.280637  R,EQ.RATIO= 1.304396  PHI,EQ.RATIO= 1.305715

                 CHAMBER   THROAT     EXIT
 Pinf/P            1.0000   1.7491   34.202
 P, BAR            30.000   17.152  0.87715
 T, K             3213.44  3005.44  1829.21
 RHO, KG/CU M    2.9206 0 1.8030 0 1.5412-1
 H, KJ/KG         1020.85   467.96 -1780.50
 U, KJ/KG         -6.3342  -483.32 -2349.64
 G, KJ/KG        -31083.0 -29557.9 -20055.2
 S, KJ/(KG)(K)     9.9905   9.9905   9.9905

 M, (1/n)          26.011   26.269   26.723
 (dLV/dLP)t      -1.01393 -1.00941 -1.00004
 (dLV/dLT)p        1.2830   1.2055   1.0011
 Cp, KJ/(KG)(K)    3.5172   3.0835   1.5759
 GAMMAs            1.1570   1.1625   1.2467
 SON VEL,M/SEC     1090.1   1051.6    842.3
 MACH NUMBER        0.000    1.000    2.810

 PERFORMANCE PARAMETERS

 Ae/At                      1.0000   5.1974
 CSTAR, M/SEC               1582.3   1582.3
 CF                         0.6646   1.4960
 Ivac, M/SEC                1956.2   2607.5
 Isp, M/SEC                 1051.6   2367.0


 MOLE FRACTIONS

 *CO              0.14340  0.13676  0.11494
 *CO2             0.08085  0.08972  0.11545
 *H               0.01064  0.00756  0.00011
 HO2              0.00001  0.00000  0.00000
 *H2              0.03988  0.03795  0.04785
 H2O              0.17564  0.18454  0.18903
 *N               0.00001  0.00000  0.00000
 *NO              0.00755  0.00456  0.00000
 *N2              0.51463  0.52126  0.53259
 *O               0.00288  0.00149  0.00000
 *OH              0.01954  0.01329  0.00003
 *O2              0.00495  0.00286  0.00000

  * THERMODYNAMIC PROPERTIES FITTED TO 20000.K

 NOTE. WEIGHT FRACTION OF FUEL IN TOTAL FUELS AND OF OXIDANT IN TOTAL OXIDANTS










              THEORETICAL ROCKET PERFORMANCE ASSUMING EQUILIBRIUM

           COMPOSITION DURING EXPANSION FROM INFINITE AREA COMBUSTOR

 Pin =   435.1 PSIA
 CASE =                

             REACTANT                    WT FRACTION      ENERGY      TEMP
                                          (SEE NOTE)     KJ/KG-MOL      K  
 FUEL        C32H66(a)                    0.9000000   -967800.000    298.150
 FUEL        stearic                      0.1000000   -912000.000    298.150
 OXIDANT     N2O(L),298.15K               1.0000000     65100.000    298.150

 O/F=    7.28570  %FUEL= 12.068986  R,EQ.RATIO= 1.278938  PHI,EQ.RATIO= 1.280123

                 CHAMBER   THROAT     EXIT
 Pinf/P            1.0000   1.7467   34.202
 P, BAR            30.000   17.175  0.87715
 T, K             3220.44  3017.11  1857.29
 RHO, KG/CU M    2.9273 0 1.8071 0 1.5282-1
 H, KJ/KG         1028.75   478.10 -1780.64
 U, KJ/KG          3.9256  -472.30 -2354.62
 G, KJ/KG        -31057.3 -29582.2 -20285.4
 S, KJ/(KG)(K)     9.9633   9.9633   9.9633

 M, (1/n)          26.128   26.395   26.904
 (dLV/dLP)t      -1.01479 -1.01036 -1.00005
 (dLV/dLT)p        1.3001   1.2259   1.0014
 Cp, KJ/(KG)(K)    3.6147   3.2113   1.5751
 GAMMAs            1.1548   1.1588   1.2449
 SON VEL,M/SEC     1087.9   1049.4    845.3
 MACH NUMBER        0.000    1.000    2.804

 PERFORMANCE PARAMETERS

 Ae/At                      1.0000   5.2353
 CSTAR, M/SEC               1581.9   1581.9
 CF                         0.6634   1.4985
 Ivac, M/SEC                1955.1   2612.5
 Isp, M/SEC                 1049.4   2370.4


 MOLE FRACTIONS

 *CO              0.13792  0.13069  0.10791
 *CO2             0.08346  0.09295  0.12005
 *H               0.01044  0.00750  0.00013
 HO2              0.00001  0.00001  0.00000
 *H2              0.03698  0.03483  0.04263
 H2O              0.17510  0.18419  0.19173
 *N               0.00001  0.00000  0.00000
 *NO              0.00837  0.00525  0.00000
 *N2              0.51780  0.52471  0.53751
 *O               0.00323  0.00175  0.00000
 *OH              0.02070  0.01446  0.00005
 *O2              0.00596  0.00366  0.00000

  * THERMODYNAMIC PROPERTIES FITTED TO 20000.K

 NOTE. WEIGHT FRACTION OF FUEL IN TOTAL FUELS AND OF OXIDANT IN TOTAL OXIDANTS










              THEORETICAL ROCKET PERFORMANCE ASSUMING EQUILIBRIUM

           COMPOSITION DURING EXPANSION FROM INFINITE AREA COMBUSTOR

 Pin =   435.1 PSIA
 CASE =                

             REACTANT                    WT FRACTION      ENERGY      TEMP
                                          (SEE NOTE)     KJ/KG-MOL      K  
 FUEL        C32H66(a)                    0.9000000   -967800.000    298.150
 FUEL        stearic                      0.1000000   -912000.000    298.150
 OXIDANT     N2O(L),298.15K               1.0000000     65100.000    298.150

 O/F=    7.42860  %FUEL= 11.864367  R,EQ.RATIO= 1.254438  PHI,EQ.RATIO= 1.255498

                 CHAMBER   THROAT     EXIT
 Pinf/P            1.0000   1.7447   34.202
 P, BAR            30.000   17.195  0.87715
 T, K             3225.92  3026.70  1885.20
 RHO, KG/CU M    2.9348 0 1.8117 0 1.5155-1
 H, KJ/KG         1036.39   487.98 -1779.92
 U, KJ/KG          14.159  -461.14 -2358.70
 G, KJ/KG        -31018.6 -29587.3 -20512.6
 S, KJ/(KG)(K)     9.9367   9.9367   9.9367

 M, (1/n)          26.239   26.515   27.082
 (dLV/dLP)t      -1.01558 -1.01129 -1.00006
 (dLV/dLT)p        1.3158   1.2455   1.0018
 Cp, KJ/(KG)(K)    3.7023   3.3324   1.5754
 GAMMAs            1.1529   1.1556   1.2430
 SON VEL,M/SEC     1085.6   1047.3    848.2
 MACH NUMBER        0.000    1.000    2.798

 PERFORMANCE PARAMETERS

 Ae/At                     1.00000   5.2751
 CSTAR, M/SEC               1581.1   1581.1
 CF                         0.6624   1.5010
 Ivac, M/SEC                1953.5   2617.2
 Isp, M/SEC                 1047.3   2373.3


 MOLE FRACTIONS

 *CO              0.13262  0.12485  0.10077
 *CO2             0.08592  0.09600  0.12481
 *H               0.01021  0.00740  0.00015
 HO2              0.00002  0.00001  0.00000
 *H2              0.03436  0.03203  0.03776
 H2O              0.17439  0.18360  0.19412
 *N               0.00001  0.00000  0.00000
 *NO              0.00919  0.00596  0.00001
 *N2              0.52082  0.52797  0.54232
 *O               0.00357  0.00202  0.00000
 *OH              0.02178  0.01557  0.00007
 *O2              0.00708  0.00457  0.00000

  * THERMODYNAMIC PROPERTIES FITTED TO 20000.K

 NOTE. WEIGHT FRACTION OF FUEL IN TOTAL FUELS AND OF OXIDANT IN TOTAL OXIDANTS










              THEORETICAL ROCKET PERFORMANCE ASSUMING EQUILIBRIUM

           COMPOSITION DURING EXPANSION FROM INFINITE AREA COMBUSTOR

 Pin =   435.1 PSIA
 CASE =                

             REACTANT                    WT FRACTION      ENERGY      TEMP
                                          (SEE NOTE)     KJ/KG-MOL      K  
 FUEL        C32H66(a)                    0.9000000   -967800.000    298.150
 FUEL        stearic                      0.1000000   -912000.000    298.150
 OXIDANT     N2O(L),298.15K               1.0000000     65100.000    298.150

 O/F=    7.57140  %FUEL= 11.666706  R,EQ.RATIO= 1.230875  PHI,EQ.RATIO= 1.231819

                 CHAMBER   THROAT     EXIT
 Pinf/P            1.0000   1.7430   34.202
 P, BAR            30.000   17.212  0.87715
 T, K             3230.07  3034.37  1912.91
 RHO, KG/CU M    2.9428 0 1.8166 0 1.5032-1
 H, KJ/KG         1043.76   497.57 -1778.32
 U, KJ/KG          24.325  -449.91 -2361.85
 G, KJ/KG        -30968.5 -29575.3 -20736.7
 S, KJ/(KG)(K)     9.9107   9.9107   9.9107

 M, (1/n)          26.344   26.628   27.256
 (dLV/dLP)t      -1.01628 -1.01215 -1.00007
 (dLV/dLT)p        1.3297   1.2637   1.0022
 Cp, KJ/(KG)(K)    3.7793   3.4441   1.5768
 GAMMAs            1.1512   1.1529   1.2411
 SON VEL,M/SEC     1083.3   1045.2    851.0
 MACH NUMBER        0.000    1.000    2.792

 PERFORMANCE PARAMETERS

 Ae/At                      1.0000   5.3167
 CSTAR, M/SEC               1580.1   1580.1
 CF                         0.6615   1.5036
 Ivac, M/SEC                1951.7   2621.4
 Isp, M/SEC                 1045.2   2375.7


 MOLE FRACTIONS

 *CO              0.12753  0.11925  0.09354
 *CO2             0.08824  0.09885  0.12970
 *H               0.00996  0.00727  0.00017
 HO2              0.00002  0.00001  0.00000
 *H2              0.03199  0.02952  0.03325
 H2O              0.17354  0.18283  0.19621
 *N               0.00001  0.00000  0.00000
 *NO              0.01002  0.00668  0.00001
 NO2              0.00001  0.00000  0.00000
 *N2              0.52371  0.53107  0.54702
 *O               0.00391  0.00230  0.00000
 *OH              0.02278  0.01661  0.00010
 *O2              0.00828  0.00561  0.00000

  * THERMODYNAMIC PROPERTIES FITTED TO 20000.K

 NOTE. WEIGHT FRACTION OF FUEL IN TOTAL FUELS AND OF OXIDANT IN TOTAL OXIDANTS










              THEORETICAL ROCKET PERFORMANCE ASSUMING EQUILIBRIUM

           COMPOSITION DURING EXPANSION FROM INFINITE AREA COMBUSTOR

 Pin =   435.1 PSIA
 CASE =                

             REACTANT                    WT FRACTION      ENERGY      TEMP
                                          (SEE NOTE)     KJ/KG-MOL      K  
 FUEL        C32H66(a)                    0.9000000   -967800.000    298.150
 FUEL        stearic                      0.1000000   -912000.000    298.150
 OXIDANT     N2O(L),298.15K               1.0000000     65100.000    298.150

 O/F=    7.71430  %FUEL= 11.475391  R,EQ.RATIO= 1.208165  PHI,EQ.RATIO= 1.209000

                 CHAMBER   THROAT     EXIT
 Pinf/P            1.0000   1.7415   34.202
 P, BAR            30.000   17.227  0.87715
 T, K             3233.02  3040.35  1940.48
 RHO, KG/CU M    2.9513 0 1.8219 0 1.4911-1
 H, KJ/KG         1050.90   506.91 -1775.82
 U, KJ/KG          34.417  -438.64 -2364.09
 G, KJ/KG        -30908.7 -29548.1 -20958.1
 S, KJ/(KG)(K)     9.8854   9.8854   9.8854

 M, (1/n)          26.445   26.735   27.426
 (dLV/dLP)t      -1.01690 -1.01294 -1.00009
 (dLV/dLT)p        1.3420   1.2804   1.0028
 Cp, KJ/(KG)(K)    3.8456   3.5445   1.5797
 GAMMAs            1.1499   1.1506   1.2390
 SON VEL,M/SEC     1081.1   1043.1    853.7
 MACH NUMBER        0.000    1.000    2.785

 PERFORMANCE PARAMETERS

 Ae/At                      1.0000   5.3601
 CSTAR, M/SEC               1578.7   1578.7
 CF                         0.6607   1.5061
 Ivac, M/SEC                1949.6   2625.1
 Isp, M/SEC                 1043.1   2377.7


 MOLE FRACTIONS

 *CO              0.12263  0.11387  0.08622
 *CO2             0.09042  0.10151  0.13473
 *H               0.00969  0.00711  0.00020
 HNO              0.00001  0.00000  0.00000
 HO2              0.00002  0.00001  0.00000
 *H2              0.02983  0.02727  0.02906
 H2O              0.17257  0.18189  0.19801
 *N               0.00001  0.00000  0.00000
 *NO              0.01084  0.00740  0.00002
 NO2              0.00001  0.00000  0.00000
 *N2              0.52647  0.53402  0.55163
 *O               0.00425  0.00257  0.00000
 *OH              0.02368  0.01758  0.00013
 *O2              0.00958  0.00676  0.00000

  * THERMODYNAMIC PROPERTIES FITTED TO 20000.K

 NOTE. WEIGHT FRACTION OF FUEL IN TOTAL FUELS AND OF OXIDANT IN TOTAL OXIDANTS










              THEORETICAL ROCKET PERFORMANCE ASSUMING EQUILIBRIUM

           COMPOSITION DURING EXPANSION FROM INFINITE AREA COMBUSTOR

 Pin =   435.1 PSIA
 CASE =                

             REACTANT                    WT FRACTION      ENERGY      TEMP
                                          (SEE NOTE)     KJ/KG-MOL      K  
 FUEL        C32H66(a)                    0.9000000   -967800.000    298.150
 FUEL        stearic                      0.1000000   -912000.000    298.150
 OXIDANT     N2O(L),298.15K               1.0000000     65100.000    298.150

 O/F=    7.85710  %FUEL= 11.290377  R,EQ.RATIO= 1.186293  PHI,EQ.RATIO= 1.187027

                 CHAMBER   THROAT     EXIT
 Pinf/P            1.0000   1.7403   34.202
 P, BAR            30.000   17.239  0.87715
 T, K             3234.91  3044.82  1967.86
 RHO, KG/CU M    2.9603 0 1.8274 0 1.4792-1
 H, KJ/KG         1057.81   515.98 -1772.40
 U, KJ/KG          44.401  -427.38 -2365.37
 G, KJ/KG        -30840.4 -29507.8 -21176.7
 S, KJ/(KG)(K)     9.8606   9.8606   9.8606

 M, (1/n)          26.541   26.836   27.593
 (dLV/dLP)t      -1.01743 -1.01364 -1.00011
 (dLV/dLT)p        1.3525   1.2953   1.0036
 Cp, KJ/(KG)(K)    3.9012   3.6323   1.5847
 GAMMAs            1.1487   1.1487   1.2367
 SON VEL,M/SEC     1078.9   1041.0    856.3
 MACH NUMBER        0.000    1.000    2.778

 PERFORMANCE PARAMETERS

 Ae/At                      1.0000   5.4052
 CSTAR, M/SEC               1577.1   1577.1
 CF                         0.6601   1.5086
 Ivac, M/SEC                1947.2   2628.4
 Isp, M/SEC                 1041.0   2379.2


 MOLE FRACTIONS

 *CO              0.11792  0.10873  0.07883
 *CO2             0.09245  0.10397  0.13988
 *H               0.00942  0.00693  0.00022
 HNO              0.00001  0.00000  0.00000
 HO2              0.00002  0.00001  0.00000
 *H2              0.02787  0.02524  0.02520
 H2O              0.17151  0.18082  0.19953
 *N               0.00001  0.00000  0.00000
 *NO              0.01164  0.00813  0.00002
 NO2              0.00001  0.00000  0.00000
 *N2              0.52911  0.53682  0.55613
 *O               0.00457  0.00284  0.00000
 *OH              0.02450  0.01846  0.00019
 *O2              0.01096  0.00803  0.00000

  * THERMODYNAMIC PROPERTIES FITTED TO 20000.K

 NOTE. WEIGHT FRACTION OF FUEL IN TOTAL FUELS AND OF OXIDANT IN TOTAL OXIDANTS










              THEORETICAL ROCKET PERFORMANCE ASSUMING EQUILIBRIUM

           COMPOSITION DURING EXPANSION FROM INFINITE AREA COMBUSTOR

 Pin =   435.1 PSIA
 CASE =                

             REACTANT                    WT FRACTION      ENERGY      TEMP
                                          (SEE NOTE)     KJ/KG-MOL      K  
 FUEL        C32H66(a)                    0.9000000   -967800.000    298.150
 FUEL        stearic                      0.1000000   -912000.000    298.150
 OXIDANT     N2O(L),298.15K               1.0000000     65100.000    298.150

 O/F=    8.00000  %FUEL= 11.111111  R,EQ.RATIO= 1.165185  PHI,EQ.RATIO= 1.165824

                 CHAMBER   THROAT     EXIT
 Pinf/P            1.0000   1.7392   34.202
 P, BAR            30.000   17.249  0.87715
 T, K             3235.87  3047.94  1995.07
 RHO, KG/CU M    2.9697 0 1.8331 0 1.4677-1
 H, KJ/KG         1064.49   524.80 -1768.03
 U, KJ/KG          54.277  -416.16 -2365.68
 G, KJ/KG        -30765.0 -29456.1 -21392.4
 S, KJ/(KG)(K)     9.8364   9.8364   9.8364

 M, (1/n)          26.633   26.932   27.755
 (dLV/dLP)t      -1.01787 -1.01425 -1.00014
 (dLV/dLT)p        1.3614   1.3081   1.0046
 Cp, KJ/(KG)(K)    3.9467   3.7071   1.5927
 GAMMAs            1.1478   1.1471   1.2341
 SON VEL,M/SEC     1076.8   1038.9    858.8
 MACH NUMBER        0.000    1.000    2.771

 PERFORMANCE PARAMETERS

 Ae/At                      1.0000   5.4519
 CSTAR, M/SEC               1575.2   1575.2
 CF                         0.6596   1.5110
 Ivac, M/SEC                1944.6   2631.2
 Isp, M/SEC                 1038.9   2380.1


 MOLE FRACTIONS

 *CO              0.11339  0.10382  0.07137
 *CO2             0.09435  0.10626  0.14513
 *H               0.00913  0.00673  0.00025
 HNO              0.00001  0.00000  0.00000
 HO2              0.00002  0.00001  0.00000
 *H2              0.02608  0.02341  0.02164
 H2O              0.17037  0.17964  0.20077
 *N               0.00001  0.00000  0.00000
 *NO              0.01244  0.00885  0.00004
 NO2              0.00001  0.00000  0.00000
 *N2              0.53164  0.53950  0.56053
 *O               0.00488  0.00310  0.00000
 *OH              0.02524  0.01926  0.00026
 *O2              0.01242  0.00939  0.00001

  * THERMODYNAMIC PROPERTIES FITTED TO 20000.K

 NOTE. WEIGHT FRACTION OF FUEL IN TOTAL FUELS AND OF OXIDANT IN TOTAL OXIDANTS










              THEORETICAL ROCKET PERFORMANCE ASSUMING EQUILIBRIUM

           COMPOSITION DURING EXPANSION FROM INFINITE AREA COMBUSTOR

 Pin =   435.1 PSIA
 CASE =                

             REACTANT                    WT FRACTION      ENERGY      TEMP
                                          (SEE NOTE)     KJ/KG-MOL      K  
 FUEL        C32H66(a)                    0.9000000   -967800.000    298.150
 FUEL        stearic                      0.1000000   -912000.000    298.150
 OXIDANT     N2O(L),298.15K               1.0000000     65100.000    298.150

 O/F=    8.14290  %FUEL= 10.937449  R,EQ.RATIO= 1.144814  PHI,EQ.RATIO= 1.145365

                 CHAMBER   THROAT     EXIT
 Pinf/P            1.0000   1.7384   34.202
 P, BAR            30.000   17.257  0.87715
 T, K             3236.01  3049.88  2022.04
 RHO, KG/CU M    2.9793 0 1.8391 0 1.4564-1
 H, KJ/KG         1070.98   533.37 -1762.69
 U, KJ/KG          64.026  -405.01 -2364.97
 G, KJ/KG        -30683.4 -29394.6 -21604.6
 S, KJ/(KG)(K)     9.8128   9.8128   9.8128

 M, (1/n)          26.720   27.024   27.914
 (dLV/dLP)t      -1.01823 -1.01476 -1.00019
 (dLV/dLT)p        1.3686   1.3190   1.0061
 Cp, KJ/(KG)(K)    3.9826   3.7688   1.6051
 GAMMAs            1.1469   1.1458   1.2310
 SON VEL,M/SEC     1074.7   1036.9    861.1
 MACH NUMBER        0.000    1.000    2.765

 PERFORMANCE PARAMETERS

 Ae/At                      1.0000   5.5002
 CSTAR, M/SEC               1573.2   1573.2
 CF                         0.6591   1.5132
 Ivac, M/SEC                1941.9   2633.6
 Isp, M/SEC                 1036.9   2380.6


 MOLE FRACTIONS

 *CO              0.10904  0.09913  0.06387
 *CO2             0.09613  0.10837  0.15047
 *H               0.00884  0.00653  0.00027
 HNO              0.00001  0.00000  0.00000
 HO2              0.00003  0.00001  0.00000
 *H2              0.02444  0.02175  0.01837
 H2O              0.16917  0.17839  0.20175
 *N               0.00001  0.00000  0.00000
 *NO              0.01321  0.00956  0.00006
 NO2              0.00001  0.00001  0.00000
 *N2              0.53407  0.54205  0.56483
 *O               0.00517  0.00336  0.00000
 *OH              0.02590  0.01998  0.00035
 *O2              0.01396  0.01086  0.00002

  * THERMODYNAMIC PROPERTIES FITTED TO 20000.K

 NOTE. WEIGHT FRACTION OF FUEL IN TOTAL FUELS AND OF OXIDANT IN TOTAL OXIDANTS










              THEORETICAL ROCKET PERFORMANCE ASSUMING EQUILIBRIUM

           COMPOSITION DURING EXPANSION FROM INFINITE AREA COMBUSTOR

 Pin =   435.1 PSIA
 CASE =                

             REACTANT                    WT FRACTION      ENERGY      TEMP
                                          (SEE NOTE)     KJ/KG-MOL      K  
 FUEL        C32H66(a)                    0.9000000   -967800.000    298.150
 FUEL        stearic                      0.1000000   -912000.000    298.150
 OXIDANT     N2O(L),298.15K               1.0000000     65100.000    298.150

 O/F=    8.28570  %FUEL= 10.769247  R,EQ.RATIO= 1.125158  PHI,EQ.RATIO= 1.125625

                 CHAMBER   THROAT     EXIT
 Pinf/P            1.0000   1.7377   34.202
 P, BAR            30.000   17.264  0.87715
 T, K             3235.41  3050.77  2048.65
 RHO, KG/CU M    2.9892 0 1.8451 0 1.4454-1
 H, KJ/KG         1077.25   541.70 -1756.32
 U, KJ/KG          73.631  -393.95 -2363.17
 G, KJ/KG        -30596.7 -29324.6 -21812.2
 S, KJ/(KG)(K)     9.7898   9.7898   9.7898

 M, (1/n)          26.804   27.110   28.069
 (dLV/dLP)t      -1.01851 -1.01518 -1.00026
 (dLV/dLT)p        1.3743   1.3278   1.0083
 Cp, KJ/(KG)(K)    4.0096   3.8178   1.6245
 GAMMAs            1.1463   1.1448   1.2272
 SON VEL,M/SEC     1072.6   1034.9    863.0
 MACH NUMBER        0.000    1.000    2.759

 PERFORMANCE PARAMETERS

 Ae/At                      1.0000   5.5496
 CSTAR, M/SEC               1571.0   1571.0
 CF                         0.6588   1.5153
 Ivac, M/SEC                1939.0   2635.5
 Isp, M/SEC                 1034.9   2380.6


 MOLE FRACTIONS

 *CO              0.10487  0.09466  0.05636
 *CO2             0.09777  0.11030  0.15586
 *H               0.00856  0.00631  0.00030
 HNO              0.00001  0.00000  0.00000
 HO2              0.00003  0.00002  0.00000
 *H2              0.02294  0.02025  0.01539
 H2O              0.16792  0.17707  0.20247
 *N               0.00001  0.00000  0.00000
 *NO              0.01397  0.01025  0.00009
 NO2              0.00001  0.00001  0.00000
 *N2              0.53641  0.54449  0.56901
 *O               0.00545  0.00360  0.00001
 *OH              0.02648  0.02062  0.00048
 *O2              0.01555  0.01241  0.00003

  * THERMODYNAMIC PROPERTIES FITTED TO 20000.K

 NOTE. WEIGHT FRACTION OF FUEL IN TOTAL FUELS AND OF OXIDANT IN TOTAL OXIDANTS










              THEORETICAL ROCKET PERFORMANCE ASSUMING EQUILIBRIUM

           COMPOSITION DURING EXPANSION FROM INFINITE AREA COMBUSTOR

 Pin =   435.1 PSIA
 CASE =                

             REACTANT                    WT FRACTION      ENERGY      TEMP
                                          (SEE NOTE)     KJ/KG-MOL      K  
 FUEL        C32H66(a)                    0.9000000   -967800.000    298.150
 FUEL        stearic                      0.1000000   -912000.000    298.150
 OXIDANT     N2O(L),298.15K               1.0000000     65100.000    298.150

 O/F=    8.42860  %FUEL= 10.606028  R,EQ.RATIO= 1.106151  PHI,EQ.RATIO= 1.106541

                 CHAMBER   THROAT     EXIT
 Pinf/P            1.0000   1.7372   34.202
 P, BAR            30.000   17.269  0.87715
 T, K             3234.16  3050.73  2074.71
 RHO, KG/CU M    2.9993 0 1.8513 0 1.4349-1
 H, KJ/KG         1083.34   549.81 -1748.86
 U, KJ/KG          83.100  -382.99 -2360.16
 G, KJ/KG        -30505.5 -29247.5 -22013.0
 S, KJ/(KG)(K)     9.7672   9.7672   9.7672

 M, (1/n)          26.884   27.193   28.219
 (dLV/dLP)t      -1.01872 -1.01550 -1.00036
 (dLV/dLT)p        1.3786   1.3348   1.0117
 Cp, KJ/(KG)(K)    4.0284   3.8547   1.6553
 GAMMAs            1.1457   1.1439   1.2223
 SON VEL,M/SEC     1070.5   1033.0    864.4
 MACH NUMBER        0.000    1.000    2.753

 PERFORMANCE PARAMETERS

 Ae/At                     1.00000   5.5999
 CSTAR, M/SEC               1568.7   1568.7
 CF                         0.6585   1.5172
 Ivac, M/SEC                1936.0   2636.8
 Isp, M/SEC                 1033.0   2380.0


 MOLE FRACTIONS

 *CO              0.10087  0.09039  0.04886
 *CO2             0.09930  0.11208  0.16126
 *H               0.00827  0.00610  0.00032
 HNO              0.00001  0.00000  0.00000
 HO2              0.00003  0.00002  0.00000
 *H2              0.02157  0.01888  0.01268
 H2O              0.16664  0.17570  0.20292
 *N               0.00001  0.00000  0.00000
 *NO              0.01471  0.01093  0.00015
 NO2              0.00001  0.00001  0.00000
 *N2              0.53867  0.54683  0.57308
 *O               0.00571  0.00383  0.00001
 *OH              0.02699  0.02118  0.00066
 *O2              0.01721  0.01405  0.00007

  * THERMODYNAMIC PROPERTIES FITTED TO 20000.K

 NOTE. WEIGHT FRACTION OF FUEL IN TOTAL FUELS AND OF OXIDANT IN TOTAL OXIDANTS










              THEORETICAL ROCKET PERFORMANCE ASSUMING EQUILIBRIUM

           COMPOSITION DURING EXPANSION FROM INFINITE AREA COMBUSTOR

 Pin =   435.1 PSIA
 CASE =                

             REACTANT                    WT FRACTION      ENERGY      TEMP
                                          (SEE NOTE)     KJ/KG-MOL      K  
 FUEL        C32H66(a)                    0.9000000   -967800.000    298.150
 FUEL        stearic                      0.1000000   -912000.000    298.150
 OXIDANT     N2O(L),298.15K               1.0000000     65100.000    298.150

 O/F=    8.57140  %FUEL= 10.447792  R,EQ.RATIO= 1.087789  PHI,EQ.RATIO= 1.088106

                 CHAMBER   THROAT     EXIT
 Pinf/P            1.0000   1.7368   34.202
 P, BAR            30.000   17.273  0.87715
 T, K             3232.34  3049.89  2099.72
 RHO, KG/CU M    3.0095 0 1.8576 0 1.4251-1
 H, KJ/KG         1089.25   557.71 -1740.26
 U, KJ/KG          92.412  -372.15 -2355.78
 G, KJ/KG        -30410.7 -29164.2 -22202.6
 S, KJ/(KG)(K)     9.7453   9.7453   9.7453

 M, (1/n)          26.961   27.271   28.363
 (dLV/dLP)t      -1.01886 -1.01574 -1.00053
 (dLV/dLT)p        1.3817   1.3399   1.0172
 Cp, KJ/(KG)(K)    4.0397   3.8805   1.7056
 GAMMAs            1.1453   1.1433   1.2155
 SON VEL,M/SEC     1068.5   1031.1    865.0
 MACH NUMBER        0.000    1.000    2.750

 PERFORMANCE PARAMETERS

 Ae/At                      1.0000   5.6499
 CSTAR, M/SEC               1566.3   1566.3
 CF                         0.6583   1.5188
 Ivac, M/SEC                1932.9   2637.6
 Isp, M/SEC                 1031.1   2378.9


 MOLE FRACTIONS

 *CO              0.09703  0.08632  0.04145
 *CO2             0.10072  0.11370  0.16659
 *H               0.00798  0.00588  0.00034
 HNO              0.00001  0.00000  0.00000
 HO2              0.00003  0.00002  0.00000
 *H2              0.02030  0.01764  0.01024
 H2O              0.16533  0.17429  0.20310
 *N               0.00001  0.00000  0.00000
 *NO              0.01542  0.01159  0.00023
 NO2              0.00001  0.00001  0.00000
 *N2              0.54084  0.54908  0.57699
 *O               0.00595  0.00404  0.00002
 *OH              0.02744  0.02167  0.00089
 *O2              0.01891  0.01575  0.00016

  * THERMODYNAMIC PROPERTIES FITTED TO 20000.K

 NOTE. WEIGHT FRACTION OF FUEL IN TOTAL FUELS AND OF OXIDANT IN TOTAL OXIDANTS










              THEORETICAL ROCKET PERFORMANCE ASSUMING EQUILIBRIUM

           COMPOSITION DURING EXPANSION FROM INFINITE AREA COMBUSTOR

 Pin =   435.1 PSIA
 CASE =                

             REACTANT                    WT FRACTION      ENERGY      TEMP
                                          (SEE NOTE)     KJ/KG-MOL      K  
 FUEL        C32H66(a)                    0.9000000   -967800.000    298.150
 FUEL        stearic                      0.1000000   -912000.000    298.150
 OXIDANT     N2O(L),298.15K               1.0000000     65100.000    298.150

 O/F=    8.71430  %FUEL= 10.294103  R,EQ.RATIO= 1.070014  PHI,EQ.RATIO= 1.070263

                 CHAMBER   THROAT     EXIT
 Pinf/P            1.0000   1.7365   34.202
 P, BAR            30.000   17.277  0.87715
 T, K             3230.01  3048.32  2122.86
 RHO, KG/CU M    3.0199 0 1.8640 0 1.4163-1
 H, KJ/KG         1094.98   565.40 -1730.43
 U, KJ/KG          101.58  -361.44 -2349.74
 G, KJ/KG        -30312.8 -29075.7 -22372.6
 S, KJ/(KG)(K)     9.7237   9.7237   9.7237

 M, (1/n)          27.034   27.346   28.500
 (dLV/dLP)t      -1.01894 -1.01590 -1.00082
 (dLV/dLT)p        1.3835   1.3434   1.0264
 Cp, KJ/(KG)(K)    4.0444   3.8961   1.7892
 GAMMAs            1.1450   1.1428   1.2062
 SON VEL,M/SEC     1066.5   1029.2    864.3
 MACH NUMBER        0.000    1.000    2.750

 PERFORMANCE PARAMETERS

 Ae/At                      1.0000   5.6980
 CSTAR, M/SEC               1563.8   1563.8
 CF                         0.6581   1.5201
 Ivac, M/SEC                1929.7   2637.7
 Isp, M/SEC                 1029.2   2377.1


 MOLE FRACTIONS

 *CO              0.09334  0.08244  0.03426
 *CO2             0.10203  0.11518  0.17171
 *H               0.00770  0.00566  0.00034
 HNO              0.00001  0.00000  0.00000
 HO2              0.00003  0.00002  0.00000
 *H2              0.01914  0.01650  0.00807
 H2O              0.16400  0.17286  0.20298
 *N               0.00001  0.00000  0.00000
 *NO              0.01611  0.01222  0.00037
 NO2              0.00001  0.00001  0.00000
 *N2              0.54293  0.55124  0.58070
 *O               0.00618  0.00424  0.00003
 *OH              0.02782  0.02209  0.00120
 *O2              0.02066  0.01752  0.00034

  * THERMODYNAMIC PROPERTIES FITTED TO 20000.K

 NOTE. WEIGHT FRACTION OF FUEL IN TOTAL FUELS AND OF OXIDANT IN TOTAL OXIDANTS










              THEORETICAL ROCKET PERFORMANCE ASSUMING EQUILIBRIUM

           COMPOSITION DURING EXPANSION FROM INFINITE AREA COMBUSTOR

 Pin =   435.1 PSIA
 CASE =                

             REACTANT                    WT FRACTION      ENERGY      TEMP
                                          (SEE NOTE)     KJ/KG-MOL      K  
 FUEL        C32H66(a)                    0.9000000   -967800.000    298.150
 FUEL        stearic                      0.1000000   -912000.000    298.150
 OXIDANT     N2O(L),298.15K               1.0000000     65100.000    298.150

 O/F=    8.85710  %FUEL= 10.144972  R,EQ.RATIO= 1.052823  PHI,EQ.RATIO= 1.053007

                 CHAMBER   THROAT     EXIT
 Pinf/P            1.0000   1.7362   34.202
 P, BAR            30.000   17.279  0.87715
 T, K             3227.23  3046.12  2142.51
 RHO, KG/CU M    3.0304 0 1.8705 0 1.4095-1
 H, KJ/KG         1100.55   572.89 -1719.31
 U, KJ/KG          110.59  -350.87 -2341.63
 G, KJ/KG        -30212.4 -28982.8 -22507.6
 S, KJ/(KG)(K)     9.7027   9.7027   9.7027

 M, (1/n)          27.105   27.417   28.625
 (dLV/dLP)t      -1.01896 -1.01598 -1.00129
 (dLV/dLT)p        1.3843   1.3454   1.0411
 Cp, KJ/(KG)(K)    4.0430   3.9026   1.9211
 GAMMAs            1.1447   1.1424   1.1942
 SON VEL,M/SEC     1064.5   1027.3    862.1
 MACH NUMBER        0.000    1.000    2.755

 PERFORMANCE PARAMETERS

 Ae/At                     1.00000   5.7406
 CSTAR, M/SEC               1561.2   1561.2
 CF                         0.6580   1.5211
 Ivac, M/SEC                1926.5   2636.9
 Isp, M/SEC                 1027.3   2374.8


 MOLE FRACTIONS

 *CO              0.08981  0.07874  0.02751
 *CO2             0.10323  0.11653  0.17636
 *H               0.00743  0.00544  0.00034
 HNO              0.00001  0.00000  0.00000
 HO2              0.00004  0.00002  0.00000
 *H2              0.01806  0.01546  0.00621
 H2O              0.16266  0.17141  0.20250
 *N               0.00001  0.00000  0.00000
 *NO              0.01678  0.01284  0.00057
 NO2              0.00002  0.00001  0.00000
 *N2              0.54495  0.55332  0.58412
 *O               0.00639  0.00443  0.00005
 *OH              0.02815  0.02245  0.00158
 *O2              0.02246  0.01935  0.00075

  * THERMODYNAMIC PROPERTIES FITTED TO 20000.K

 NOTE. WEIGHT FRACTION OF FUEL IN TOTAL FUELS AND OF OXIDANT IN TOTAL OXIDANTS










              THEORETICAL ROCKET PERFORMANCE ASSUMING EQUILIBRIUM

           COMPOSITION DURING EXPANSION FROM INFINITE AREA COMBUSTOR

 Pin =   435.1 PSIA
 CASE =                

             REACTANT                    WT FRACTION      ENERGY      TEMP
                                          (SEE NOTE)     KJ/KG-MOL      K  
 FUEL        C32H66(a)                    0.9000000   -967800.000    298.150
 FUEL        stearic                      0.1000000   -912000.000    298.150
 OXIDANT     N2O(L),298.15K               1.0000000     65100.000    298.150

 O/F=    9.00000  %FUEL= 10.000000  R,EQ.RATIO= 1.036164  PHI,EQ.RATIO= 1.036288

                 CHAMBER   THROAT     EXIT
 Pinf/P            1.0000   1.7361   34.202
 P, BAR            30.000   17.280  0.87715
 T, K             3224.04  3043.35  2156.53
 RHO, KG/CU M    3.0410 0 1.8770 0 1.4057-1
 H, KJ/KG         1105.96   580.19 -1706.89
 U, KJ/KG          119.44  -340.43 -2330.91
 G, KJ/KG        -30109.8 -28886.1 -22586.9
 S, KJ/(KG)(K)     9.6822   9.6822   9.6822

 M, (1/n)          27.173   27.486   28.734
 (dLV/dLP)t      -1.01894 -1.01600 -1.00192
 (dLV/dLT)p        1.3842   1.3461   1.0606
 Cp, KJ/(KG)(K)    4.0363   3.9010   2.0925
 GAMMAs            1.1446   1.1422   1.1815
 SON VEL,M/SEC     1062.6   1025.4    858.7
 MACH NUMBER        0.000    1.000    2.762

 PERFORMANCE PARAMETERS

 Ae/At                      1.0000   5.7732
 CSTAR, M/SEC               1558.6   1558.6
 CF                         0.6579   1.5218
 Ivac, M/SEC                1923.2   2634.9
 Isp, M/SEC                 1025.4   2371.9


 MOLE FRACTIONS

 *CO              0.08642  0.07521  0.02154
 *CO2             0.10434  0.11775  0.18018
 *H               0.00716  0.00522  0.00032
 HNO              0.00001  0.00000  0.00000
 HO2              0.00004  0.00002  0.00000
 *H2              0.01706  0.01450  0.00470
 H2O              0.16131  0.16995  0.20160
 *N               0.00001  0.00000  0.00000
 *NO              0.01742  0.01343  0.00085
 NO2              0.00002  0.00001  0.00000
 *N2              0.54691  0.55532  0.58714
 *O               0.00658  0.00459  0.00009
 *OH              0.02842  0.02274  0.00201
 *O2              0.02429  0.02124  0.00157

  * THERMODYNAMIC PROPERTIES FITTED TO 20000.K

 NOTE. WEIGHT FRACTION OF FUEL IN TOTAL FUELS AND OF OXIDANT IN TOTAL OXIDANTS










              THEORETICAL ROCKET PERFORMANCE ASSUMING EQUILIBRIUM

           COMPOSITION DURING EXPANSION FROM INFINITE AREA COMBUSTOR

 Pin =   435.1 PSIA
 CASE =                

             REACTANT                    WT FRACTION      ENERGY      TEMP
                                          (SEE NOTE)     KJ/KG-MOL      K  
 FUEL        C32H66(a)                    0.9000000   -967800.000    298.150
 FUEL        stearic                      0.1000000   -912000.000    298.150
 OXIDANT     N2O(L),298.15K               1.0000000     65100.000    298.150

 O/F=    9.14290  %FUEL=  9.859113  R,EQ.RATIO= 1.020023  PHI,EQ.RATIO= 1.020091

                 CHAMBER   THROAT     EXIT
 Pinf/P            1.0000   1.7360   34.202
 P, BAR            30.000   17.281  0.87715
 T, K             3220.49  3040.08  2163.24
 RHO, KG/CU M    3.0517 0 1.8836 0 1.4056-1
 H, KJ/KG         1111.21   587.31 -1693.27
 U, KJ/KG          128.15  -330.15 -2317.31
 G, KJ/KG        -30005.4 -28786.3 -22594.7
 S, KJ/(KG)(K)     9.6621   9.6621   9.6621

 M, (1/n)          27.238   27.551   28.822
 (dLV/dLP)t      -1.01887 -1.01596 -1.00248
 (dLV/dLT)p        1.3831   1.3455   1.0776
 Cp, KJ/(KG)(K)    4.0250   3.8922   2.2381
 GAMMAs            1.1445   1.1421   1.1726
 SON VEL,M/SEC     1060.7   1023.6    855.4
 MACH NUMBER        0.000    1.000    2.769

 PERFORMANCE PARAMETERS

 Ae/At                      1.0000   5.7919
 CSTAR, M/SEC               1556.0   1556.0
 CF                         0.6579   1.5221
 Ivac, M/SEC                1919.9   2631.8
 Isp, M/SEC                 1023.6   2368.3


 MOLE FRACTIONS

 *CO              0.08316  0.07185  0.01665
 *CO2             0.10536  0.11884  0.18284
 *H               0.00690  0.00501  0.00029
 HNO              0.00001  0.00000  0.00000
 HO2              0.00004  0.00002  0.00000
 *H2              0.01614  0.01361  0.00354
 H2O              0.15996  0.16849  0.20027
 *N               0.00001  0.00000  0.00000
 *NO              0.01804  0.01399  0.00119
 NO2              0.00002  0.00001  0.00000
 *N2              0.54881  0.55725  0.58970
 *O               0.00676  0.00475  0.00012
 *OH              0.02864  0.02299  0.00242
 *O2              0.02616  0.02317  0.00297

  * THERMODYNAMIC PROPERTIES FITTED TO 20000.K

 NOTE. WEIGHT FRACTION OF FUEL IN TOTAL FUELS AND OF OXIDANT IN TOTAL OXIDANTS










              THEORETICAL ROCKET PERFORMANCE ASSUMING EQUILIBRIUM

           COMPOSITION DURING EXPANSION FROM INFINITE AREA COMBUSTOR

 Pin =   435.1 PSIA
 CASE =                

             REACTANT                    WT FRACTION      ENERGY      TEMP
                                          (SEE NOTE)     KJ/KG-MOL      K  
 FUEL        C32H66(a)                    0.9000000   -967800.000    298.150
 FUEL        stearic                      0.1000000   -912000.000    298.150
 OXIDANT     N2O(L),298.15K               1.0000000     65100.000    298.150

 O/F=    9.28570  %FUEL=  9.722236  R,EQ.RATIO= 1.004389  PHI,EQ.RATIO= 1.004404

                 CHAMBER   THROAT     EXIT
 Pinf/P            1.0000   1.7360   34.202
 P, BAR            30.000   17.281  0.87715
 T, K             3216.62  3036.37  2162.83
 RHO, KG/CU M    3.0624 0 1.8902 0 1.4092-1
 H, KJ/KG         1116.32   594.25 -1678.67
 U, KJ/KG          136.69  -320.02 -2301.13
 G, KJ/KG        -29899.8 -28683.9 -22533.7
 S, KJ/(KG)(K)     9.6425   9.6425   9.6425

 M, (1/n)          27.301   27.613   28.890
 (dLV/dLP)t      -1.01876 -1.01587 -1.00270
 (dLV/dLT)p        1.3814   1.3439   1.0841
 Cp, KJ/(KG)(K)    4.0095   3.8772   2.2911
 GAMMAs            1.1444   1.1421   1.1695
 SON VEL,M/SEC     1058.8   1021.8    853.2
 MACH NUMBER        0.000    1.000    2.771

 PERFORMANCE PARAMETERS

 Ae/At                      1.0000   5.7971
 CSTAR, M/SEC               1553.3   1553.3
 CF                         0.6579   1.5222
 Ivac, M/SEC                1916.6   2627.6
 Isp, M/SEC                 1021.8   2364.3


 MOLE FRACTIONS

 *CO              0.08004  0.06864  0.01289
 *CO2             0.10630  0.11983  0.18430
 *H               0.00664  0.00481  0.00025
 HNO              0.00001  0.00000  0.00000
 HO2              0.00004  0.00002  0.00000
 *H2              0.01528  0.01280  0.00270
 H2O              0.15860  0.16702  0.19860
 *N               0.00001  0.00000  0.00000
 *NO              0.01864  0.01454  0.00155
 NO2              0.00002  0.00001  0.00000
 *N2              0.55064  0.55912  0.59180
 *O               0.00692  0.00488  0.00016
 *OH              0.02881  0.02318  0.00274
 *O2              0.02805  0.02514  0.00501

  * THERMODYNAMIC PROPERTIES FITTED TO 20000.K

 NOTE. WEIGHT FRACTION OF FUEL IN TOTAL FUELS AND OF OXIDANT IN TOTAL OXIDANTS










              THEORETICAL ROCKET PERFORMANCE ASSUMING EQUILIBRIUM

           COMPOSITION DURING EXPANSION FROM INFINITE AREA COMBUSTOR

 Pin =   435.1 PSIA
 CASE =                

             REACTANT                    WT FRACTION      ENERGY      TEMP
                                          (SEE NOTE)     KJ/KG-MOL      K  
 FUEL        C32H66(a)                    0.9000000   -967800.000    298.150
 FUEL        stearic                      0.1000000   -912000.000    298.150
 OXIDANT     N2O(L),298.15K               1.0000000     65100.000    298.150

 O/F=    9.42860  %FUEL=  9.589015  R,EQ.RATIO= 0.989216  PHI,EQ.RATIO= 0.989181

                 CHAMBER   THROAT     EXIT
 Pinf/P            1.0000   1.7360   34.202
 P, BAR            30.000   17.281  0.87715
 T, K             3212.46  3032.26  2156.93
 RHO, KG/CU M    3.0731 0 1.8968 0 1.4155-1
 H, KJ/KG         1121.29   601.03 -1663.30
 U, KJ/KG          145.08  -310.03 -2282.97
 G, KJ/KG        -29793.0 -28579.2 -22420.0
 S, KJ/(KG)(K)     9.6233   9.6233   9.6233

 M, (1/n)          27.361   27.673   28.941
 (dLV/dLP)t      -1.01862 -1.01574 -1.00260
 (dLV/dLT)p        1.3790   1.3414   1.0809
 Cp, KJ/(KG)(K)    3.9904   3.8568   2.2597
 GAMMAs            1.1444   1.1421   1.1709
 SON VEL,M/SEC     1057.0   1020.1    851.8
 MACH NUMBER        0.000    1.000    2.771

 PERFORMANCE PARAMETERS

 Ae/At                      1.0000   5.7920
 CSTAR, M/SEC               1550.5   1550.5
 CF                         0.6579   1.5220
 Ivac, M/SEC                1913.2   2622.5
 Isp, M/SEC                 1020.1   2359.9


 MOLE FRACTIONS

 *CO              0.07704  0.06558  0.01007
 *CO2             0.10715  0.12071  0.18476
 *H               0.00639  0.00461  0.00021
 HNO              0.00001  0.00000  0.00000
 HO2              0.00004  0.00003  0.00000
 *H2              0.01448  0.01204  0.00209
 H2O              0.15725  0.16556  0.19670
 *N               0.00001  0.00000  0.00000
 *NO              0.01921  0.01505  0.00188
 NO2              0.00002  0.00001  0.00000
 *N2              0.55242  0.56092  0.59357
 N2O              0.00001  0.00000  0.00000
 *O               0.00706  0.00500  0.00019
 *OH              0.02894  0.02332  0.00295
 *O2              0.02996  0.02714  0.00757

  * THERMODYNAMIC PROPERTIES FITTED TO 20000.K

 NOTE. WEIGHT FRACTION OF FUEL IN TOTAL FUELS AND OF OXIDANT IN TOTAL OXIDANTS










              THEORETICAL ROCKET PERFORMANCE ASSUMING EQUILIBRIUM

           COMPOSITION DURING EXPANSION FROM INFINITE AREA COMBUSTOR

 Pin =   435.1 PSIA
 CASE =                

             REACTANT                    WT FRACTION      ENERGY      TEMP
                                          (SEE NOTE)     KJ/KG-MOL      K  
 FUEL        C32H66(a)                    0.9000000   -967800.000    298.150
 FUEL        stearic                      0.1000000   -912000.000    298.150
 OXIDANT     N2O(L),298.15K               1.0000000     65100.000    298.150

 O/F=    9.57140  %FUEL=  9.459485  R,EQ.RATIO= 0.974505  PHI,EQ.RATIO= 0.974423

                 CHAMBER   THROAT     EXIT
 Pinf/P            1.0000   1.7361   34.202
 P, BAR            30.000   17.280  0.87715
 T, K             3208.05  3027.80  2147.32
 RHO, KG/CU M    3.0839 0 1.9034 0 1.4238-1
 H, KJ/KG         1126.13   607.64 -1647.43
 U, KJ/KG          153.32  -300.20 -2263.49
 G, KJ/KG        -29685.5 -28472.8 -22271.3
 S, KJ/(KG)(K)     9.6045   9.6045   9.6045

 M, (1/n)          27.419   27.730   28.981
 (dLV/dLP)t      -1.01845 -1.01557 -1.00234
 (dLV/dLT)p        1.3760   1.3381   1.0729
 Cp, KJ/(KG)(K)    3.9682   3.8318   2.1878
 GAMMAs            1.1445   1.1422   1.1746
 SON VEL,M/SEC     1055.2   1018.3    850.7
 MACH NUMBER        0.000    1.000    2.769

 PERFORMANCE PARAMETERS

 Ae/At                      1.0000   5.7800
 CSTAR, M/SEC               1547.8   1547.8
 CF                         0.6579   1.5217
 Ivac, M/SEC                1909.8   2616.8
 Isp, M/SEC                 1018.3   2355.2


 MOLE FRACTIONS

 *CO              0.07416  0.06266  0.00797
 *CO2             0.10793  0.12150  0.18449
 *H               0.00615  0.00441  0.00018
 HNO              0.00001  0.00000  0.00000
 HO2              0.00004  0.00003  0.00000
 *H2              0.01373  0.01135  0.00165
 H2O              0.15591  0.16411  0.19466
 *N               0.00001  0.00000  0.00000
 *NO              0.01976  0.01555  0.00217
 NO2              0.00002  0.00001  0.00000
 *N2              0.55414  0.56266  0.59509
 N2O              0.00001  0.00000  0.00000
 *O               0.00719  0.00511  0.00021
 *OH              0.02903  0.02342  0.00307
 *O2              0.03190  0.02918  0.01052

  * THERMODYNAMIC PROPERTIES FITTED TO 20000.K

 NOTE. WEIGHT FRACTION OF FUEL IN TOTAL FUELS AND OF OXIDANT IN TOTAL OXIDANTS










              THEORETICAL ROCKET PERFORMANCE ASSUMING EQUILIBRIUM

           COMPOSITION DURING EXPANSION FROM INFINITE AREA COMBUSTOR

 Pin =   435.1 PSIA
 CASE =                

             REACTANT                    WT FRACTION      ENERGY      TEMP
                                          (SEE NOTE)     KJ/KG-MOL      K  
 FUEL        C32H66(a)                    0.9000000   -967800.000    298.150
 FUEL        stearic                      0.1000000   -912000.000    298.150
 OXIDANT     N2O(L),298.15K               1.0000000     65100.000    298.150

 O/F=    9.71430  %FUEL=  9.333321  R,EQ.RATIO= 0.960216  PHI,EQ.RATIO= 0.960089

                 CHAMBER   THROAT     EXIT
 Pinf/P            1.0000   1.7363   34.202
 P, BAR            30.000   17.279  0.87715
 T, K             3203.40  3023.02  2135.32
 RHO, KG/CU M    3.0946 0 1.9100 0 1.4333-1
 H, KJ/KG         1130.83   614.10 -1631.18
 U, KJ/KG          161.41  -290.52 -2243.15
 G, KJ/KG        -29577.2 -28364.9 -22100.5
 S, KJ/(KG)(K)     9.5861   9.5861   9.5861

 M, (1/n)          27.475   27.785   29.012
 (dLV/dLP)t      -1.01825 -1.01536 -1.00203
 (dLV/dLT)p        1.3724   1.3341   1.0638
 Cp, KJ/(KG)(K)    3.9432   3.8028   2.1061
 GAMMAs            1.1446   1.1424   1.1792
 SON VEL,M/SEC     1053.4   1016.6    849.5
 MACH NUMBER        0.000    1.000    2.767

 PERFORMANCE PARAMETERS

 Ae/At                      1.0000   5.7639
 CSTAR, M/SEC               1545.0   1545.0
 CF                         0.6580   1.5212
 Ivac, M/SEC                1906.4   2610.7
 Isp, M/SEC                 1016.6   2350.3


 MOLE FRACTIONS

 *CO              0.07139  0.05987  0.00637
 *CO2             0.10863  0.12219  0.18373
 *H               0.00592  0.00422  0.00015
 HNO              0.00001  0.00000  0.00000
 HO2              0.00005  0.00003  0.00000
 *H2              0.01303  0.01070  0.00132
 H2O              0.15457  0.16266  0.19256
 *N               0.00001  0.00000  0.00000
 *NO              0.02029  0.01602  0.00241
 NO2              0.00002  0.00001  0.00000
 *N2              0.55581  0.56435  0.59643
 N2O              0.00001  0.00000  0.00000
 *O               0.00731  0.00520  0.00022
 *OH              0.02909  0.02349  0.00310
 *O2              0.03386  0.03124  0.01371

  * THERMODYNAMIC PROPERTIES FITTED TO 20000.K

 NOTE. WEIGHT FRACTION OF FUEL IN TOTAL FUELS AND OF OXIDANT IN TOTAL OXIDANTS










              THEORETICAL ROCKET PERFORMANCE ASSUMING EQUILIBRIUM

           COMPOSITION DURING EXPANSION FROM INFINITE AREA COMBUSTOR

 Pin =   435.1 PSIA
 CASE =                

             REACTANT                    WT FRACTION      ENERGY      TEMP
                                          (SEE NOTE)     KJ/KG-MOL      K  
 FUEL        C32H66(a)                    0.9000000   -967800.000    298.150
 FUEL        stearic                      0.1000000   -912000.000    298.150
 OXIDANT     N2O(L),298.15K               1.0000000     65100.000    298.150

 O/F=    9.85710  %FUEL=  9.210563  R,EQ.RATIO= 0.946348  PHI,EQ.RATIO= 0.946180

                 CHAMBER   THROAT     EXIT
 Pinf/P            1.0000   1.7364   34.202
[...]

 Ae/At                      1.0000   5.5994
 CSTAR, M/SEC               1522.8   1522.8
 CF                         0.6591   1.5156
 Ivac, M/SEC                1879.6   2557.2
 Isp, M/SEC                 1003.7   2307.9


 MOLE FRACTIONS

 *CO              0.05285  0.04166  0.00135
 *CO2             0.11208  0.12502  0.17111
 *H               0.00433  0.00294  0.00003
 HNO              0.00001  0.00000  0.00000
 HO2              0.00005  0.00003  0.00000
 *H2              0.00882  0.00687  0.00030
 H2O              0.14433  0.15161  0.17590
 *N               0.00001  0.00000  0.00000
 *NO              0.02374  0.01902  0.00311
 NO2              0.00003  0.00002  0.00000
 *N2              0.56763  0.57616  0.60442
 N2O              0.00001  0.00000  0.00000
 *O               0.00777  0.00552  0.00016
 *OH              0.02853  0.02290  0.00228
 *O2              0.04980  0.04823  0.04134

  * THERMODYNAMIC PROPERTIES FITTED TO 20000.K

 NOTE. WEIGHT FRACTION OF FUEL IN TOTAL FUELS AND OF OXIDANT IN TOTAL OXIDANTS










              THEORETICAL ROCKET PERFORMANCE ASSUMING EQUILIBRIUM

           COMPOSITION DURING EXPANSION FROM INFINITE AREA COMBUSTOR

 Pin =   435.1 PSIA
 CASE =                

             REACTANT                    WT FRACTION      ENERGY      TEMP
                                          (SEE NOTE)     KJ/KG-MOL      K  
 FUEL        C32H66(a)                    0.9000000   -967800.000    298.150
 FUEL        stearic                      0.1000000   -912000.000    298.150
 OXIDANT     N2O(L),298.15K               1.0000000     65100.000    298.150

 O/F=   11.00000  %FUEL=  8.333333  R,EQ.RATIO= 0.848299  PHI,EQ.RATIO= 0.847872

                 CHAMBER   THROAT     EXIT
 Pinf/P            1.0000   1.7388   34.202
 P, BAR            30.000   17.253  0.87715
 T, K             3154.48  2970.18  2000.56
 RHO, KG/CU M    3.1909 0 1.9695 0 1.5363-1
 H, KJ/KG         1168.15   666.01 -1482.69
 U, KJ/KG          227.97  -210.02 -2053.63
 G, KJ/KG        -28600.4 -27363.3 -20361.8
 S, KJ/(KG)(K)     9.4369   9.4369   9.4369

 M, (1/n)          27.897   28.190   29.134
 (dLV/dLP)t      -1.01579 -1.01271 -1.00053
 (dLV/dLT)p        1.3272   1.2811   1.0181
 Cp, KJ/(KG)(K)    3.6490   3.4480   1.6770
 GAMMAs            1.1469   1.1464   1.2134
 SON VEL,M/SEC     1038.4   1002.1    832.3
 MACH NUMBER        0.000    1.000    2.766

 PERFORMANCE PARAMETERS

 Ae/At                      1.0000   5.5794
 CSTAR, M/SEC               1520.0   1520.0
 CF                         0.6593   1.5148
 Ivac, M/SEC                1876.3   2550.5
 Isp, M/SEC                 1002.1   2302.5


 MOLE FRACTIONS

 *CO              0.05092  0.03982  0.00113
 *CO2             0.11228  0.12510  0.16931
 *H               0.00416  0.00280  0.00003
 HNO              0.00001  0.00000  0.00000
 HO2              0.00006  0.00004  0.00000
 *H2              0.00843  0.00652  0.00025
 H2O              0.14312  0.15030  0.17395
 *NO              0.02408  0.01930  0.00310
 NO2              0.00003  0.00002  0.00000
 *N2              0.56894  0.57745  0.60523
 N2O              0.00001  0.00000  0.00000
 *O               0.00778  0.00551  0.00015
 *OH              0.02837  0.02273  0.00215
 *O2              0.05180  0.05038  0.04469

  * THERMODYNAMIC PROPERTIES FITTED TO 20000.K

 NOTE. WEIGHT FRACTION OF FUEL IN TOTAL FUELS AND OF OXIDANT IN TOTAL OXIDANTS










              THEORETICAL ROCKET PERFORMANCE ASSUMING EQUILIBRIUM

           COMPOSITION DURING EXPANSION FROM INFINITE AREA COMBUSTOR

 Pin =   435.1 PSIA
 CASE =                

             REACTANT                    WT FRACTION      ENERGY      TEMP
                                          (SEE NOTE)     KJ/KG-MOL      K  
 FUEL        C32H66(a)                    0.9000000   -967800.000    298.150
 FUEL        stearic                      0.1000000   -912000.000    298.150
 OXIDANT     N2O(L),298.15K               1.0000000     65100.000    298.150

 O/F=   11.14290  %FUEL=  8.235265  R,EQ.RATIO= 0.837450  PHI,EQ.RATIO= 0.836999

                 CHAMBER   THROAT     EXIT
 Pinf/P            1.0000   1.7392   34.202
 P, BAR            30.000   17.250  0.87715
 T, K             3148.51  2963.56  1985.71
 RHO, KG/CU M    3.2014 0 1.9760 0 1.5482-1
 H, KJ/KG         1171.81   671.18 -1466.65
 U, KJ/KG          234.72  -201.77 -2033.22
 G, KJ/KG        -28493.3 -27251.3 -20175.9
 S, KJ/(KG)(K)     9.4219   9.4219   9.4219

 M, (1/n)          27.936   28.227   29.140
 (dLV/dLP)t      -1.01548 -1.01238 -1.00047
 (dLV/dLT)p        1.3213   1.2744   1.0160
 Cp, KJ/(KG)(K)    3.6125   3.4043   1.6542
 GAMMAs            1.1473   1.1470   1.2159
 SON VEL,M/SEC     1036.9   1000.6    830.0
 MACH NUMBER        0.000    1.000    2.768

 PERFORMANCE PARAMETERS

 Ae/At                      1.0000   5.5597
 CSTAR, M/SEC               1517.3   1517.3
 CF                         0.6595   1.5140
 Ivac, M/SEC                1873.0   2543.8
 Isp, M/SEC                 1000.6   2297.2


 MOLE FRACTIONS

 *CO              0.04907  0.03806  0.00096
 *CO2             0.11244  0.12513  0.16752
 *H               0.00400  0.00267  0.00002
 HNO              0.00001  0.00000  0.00000
 HO2              0.00006  0.00004  0.00000
 *H2              0.00805  0.00619  0.00022
 H2O              0.14192  0.14901  0.17202
 *NO              0.02441  0.01957  0.00309
 NO2              0.00004  0.00002  0.00000
 *N2              0.57021  0.57871  0.60602
 N2O              0.00001  0.00000  0.00000
 *O               0.00779  0.00550  0.00014
 *OH              0.02819  0.02255  0.00203
 *O2              0.05380  0.05253  0.04799

  * THERMODYNAMIC PROPERTIES FITTED TO 20000.K

 NOTE. WEIGHT FRACTION OF FUEL IN TOTAL FUELS AND OF OXIDANT IN TOTAL OXIDANTS










              THEORETICAL ROCKET PERFORMANCE ASSUMING EQUILIBRIUM

           COMPOSITION DURING EXPANSION FROM INFINITE AREA COMBUSTOR

 Pin =   435.1 PSIA
 CASE =                

             REACTANT                    WT FRACTION      ENERGY      TEMP
                                          (SEE NOTE)     KJ/KG-MOL      K  
 FUEL        C32H66(a)                    0.9000000   -967800.000    298.150
 FUEL        stearic                      0.1000000   -912000.000    298.150
 OXIDANT     N2O(L),298.15K               1.0000000     65100.000    298.150

 O/F=   11.28570  %FUEL=  8.139544  R,EQ.RATIO= 0.826882  PHI,EQ.RATIO= 0.826408

                 CHAMBER   THROAT     EXIT
 Pinf/P            1.0000   1.7396   34.202
 P, BAR            30.000   17.246  0.87715
 T, K             3142.48  2956.85  1971.09
 RHO, KG/CU M    3.2119 0 1.9825 0 1.5600-1
 H, KJ/KG         1175.38   676.24 -1450.78
 U, KJ/KG          241.36  -193.64 -2013.07
 G, KJ/KG        -28386.8 -27139.7 -19993.3
 S, KJ/(KG)(K)     9.4073   9.4073   9.4073

 M, (1/n)          27.974   28.262   29.146
 (dLV/dLP)t      -1.01517 -1.01205 -1.00041
 (dLV/dLT)p        1.3155   1.2677   1.0142
 Cp, KJ/(KG)(K)    3.5759   3.3607   1.6340
 GAMMAs            1.1477   1.1476   1.2183
 SON VEL,M/SEC     1035.3    999.2    827.7
 MACH NUMBER        0.000    1.000    2.769

 PERFORMANCE PARAMETERS

 Ae/At                      1.0000   5.5406
 CSTAR, M/SEC               1514.5   1514.5
 CF                         0.6597   1.5132
 Ivac, M/SEC                1869.8   2537.1
 Isp, M/SEC                  999.1   2291.8


 MOLE FRACTIONS

 *CO              0.04728  0.03638  0.00081
 *CO2             0.11257  0.12512  0.16574
 *H               0.00385  0.00255  0.00002
 HNO              0.00001  0.00000  0.00000
 HO2              0.00006  0.00004  0.00000
 *H2              0.00770  0.00588  0.00019
 H2O              0.14074  0.14774  0.17014
 *NO              0.02472  0.01982  0.00306
 NO2              0.00004  0.00003  0.00000
 *N2              0.57146  0.57994  0.60678
 N2O              0.00001  0.00000  0.00000
 *O               0.00778  0.00548  0.00013
 *OH              0.02800  0.02234  0.00190
 *O2              0.05579  0.05467  0.05123

  * THERMODYNAMIC PROPERTIES FITTED TO 20000.K

 NOTE. WEIGHT FRACTION OF FUEL IN TOTAL FUELS AND OF OXIDANT IN TOTAL OXIDANTS










              THEORETICAL ROCKET PERFORMANCE ASSUMING EQUILIBRIUM

           COMPOSITION DURING EXPANSION FROM INFINITE AREA COMBUSTOR

 Pin =   435.1 PSIA
 CASE =                

             REACTANT                    WT FRACTION      ENERGY      TEMP
                                          (SEE NOTE)     KJ/KG-MOL      K  
 FUEL        C32H66(a)                    0.9000000   -967800.000    298.150
 FUEL        stearic                      0.1000000   -912000.000    298.150
 OXIDANT     N2O(L),298.15K               1.0000000     65100.000    298.150

 O/F=   11.42860  %FUEL=  8.045959  R,EQ.RATIO= 0.816571  PHI,EQ.RATIO= 0.816075

                 CHAMBER   THROAT     EXIT
 Pinf/P            1.0000   1.7400   34.202
 P, BAR            30.000   17.241  0.87715
 T, K             3136.38  2950.04  1956.70
 RHO, KG/CU M    3.2224 0 1.9890 0 1.5717-1
 H, KJ/KG         1178.87   681.18 -1435.06
 U, KJ/KG          247.88  -185.65 -1993.15
 G, KJ/KG        -28280.8 -27028.2 -19814.1
 S, KJ/(KG)(K)     9.3929   9.3929   9.3929

 M, (1/n)          28.011   28.296   29.151
 (dLV/dLP)t      -1.01485 -1.01172 -1.00036
 (dLV/dLT)p        1.3096   1.2610   1.0126
 Cp, KJ/(KG)(K)    3.5392   3.3171   1.6159
 GAMMAs            1.1481   1.1483   1.2205
 SON VEL,M/SEC     1033.9    997.7    825.3
 MACH NUMBER        0.000    1.000    2.770

 PERFORMANCE PARAMETERS

 Ae/At                      1.0000   5.5220
 CSTAR, M/SEC               1511.8   1511.8
 CF                         0.6599   1.5124
 Ivac, M/SEC                1866.5   2530.5
 Isp, M/SEC                  997.7   2286.5


 MOLE FRACTIONS

 *CO              0.04557  0.03477  0.00068
 *CO2             0.11265  0.12506  0.16398
 *H               0.00370  0.00243  0.00002
 HNO              0.00001  0.00000  0.00000
 HO2              0.00006  0.00004  0.00000
 *H2              0.00736  0.00558  0.00016
 H2O              0.13957  0.14649  0.16828
 *NO              0.02501  0.02005  0.00303
 NO2              0.00004  0.00003  0.00000
 *N2              0.57267  0.58114  0.60753
 N2O              0.00001  0.00000  0.00000
 *O               0.00777  0.00546  0.00012
 *OH              0.02780  0.02213  0.00179
 *O2              0.05777  0.05681  0.05441

  * THERMODYNAMIC PROPERTIES FITTED TO 20000.K

 NOTE. WEIGHT FRACTION OF FUEL IN TOTAL FUELS AND OF OXIDANT IN TOTAL OXIDANTS










              THEORETICAL ROCKET PERFORMANCE ASSUMING EQUILIBRIUM

           COMPOSITION DURING EXPANSION FROM INFINITE AREA COMBUSTOR

 Pin =   435.1 PSIA
 CASE =                

             REACTANT                    WT FRACTION      ENERGY      TEMP
                                          (SEE NOTE)     KJ/KG-MOL      K  
 FUEL        C32H66(a)                    0.9000000   -967800.000    298.150
 FUEL        stearic                      0.1000000   -912000.000    298.150
 OXIDANT     N2O(L),298.15K               1.0000000     65100.000    298.150

 O/F=   11.57140  %FUEL=  7.954564  R,EQ.RATIO= 0.806521  PHI,EQ.RATIO= 0.806004

                 CHAMBER   THROAT     EXIT
 Pinf/P            1.0000   1.7404   34.202
 P, BAR            30.000   17.237  0.87715
 T, K             3130.23  2943.16  1942.57
 RHO, KG/CU M    3.2328 0 1.9955 0 1.5834-1
 H, KJ/KG         1182.28   686.03 -1419.54
 U, KJ/KG          254.30  -177.78 -1973.51
 G, KJ/KG        -28175.4 -26917.2 -19638.5
 S, KJ/(KG)(K)     9.3788   9.3788   9.3788

 M, (1/n)          28.046   28.329   29.156
 (dLV/dLP)t      -1.01454 -1.01139 -1.00032
 (dLV/dLT)p        1.3037   1.2543   1.0113
 Cp, KJ/(KG)(K)    3.5026   3.2738   1.5996
 GAMMAs            1.1485   1.1490   1.2225
 SON VEL,M/SEC     1032.4    996.2    822.9
 MACH NUMBER        0.000    1.000    2.772

 PERFORMANCE PARAMETERS

 Ae/At                      1.0000   5.5038
 CSTAR, M/SEC               1509.1   1509.1
 CF                         0.6602   1.5116
 Ivac, M/SEC                1863.3   2524.0
 Isp, M/SEC                  996.2   2281.1


 MOLE FRACTIONS

 *CO              0.04392  0.03324  0.00058
 *CO2             0.11270  0.12496  0.16224
 *H               0.00356  0.00232  0.00001
 HNO              0.00001  0.00000  0.00000
 HO2              0.00006  0.00004  0.00000
 *H2              0.00704  0.00531  0.00014
 H2O              0.13842  0.14526  0.16647
 *NO              0.02529  0.02027  0.00299
 NO2              0.00004  0.00003  0.00000
 *N2              0.57386  0.58230  0.60825
 N2O              0.00001  0.00000  0.00000
 *O               0.00775  0.00542  0.00011
 *OH              0.02759  0.02191  0.00168
 *O2              0.05975  0.05894  0.05753

  * THERMODYNAMIC PROPERTIES FITTED TO 20000.K

 NOTE. WEIGHT FRACTION OF FUEL IN TOTAL FUELS AND OF OXIDANT IN TOTAL OXIDANTS










              THEORETICAL ROCKET PERFORMANCE ASSUMING EQUILIBRIUM

           COMPOSITION DURING EXPANSION FROM INFINITE AREA COMBUSTOR

 Pin =   435.1 PSIA
 CASE =                

             REACTANT                    WT FRACTION      ENERGY      TEMP
                                          (SEE NOTE)     KJ/KG-MOL      K  
 FUEL        C32H66(a)                    0.9000000   -967800.000    298.150
 FUEL        stearic                      0.1000000   -912000.000    298.150
 OXIDANT     N2O(L),298.15K               1.0000000     65100.000    298.150

 O/F=   11.71430  %FUEL=  7.865160  R,EQ.RATIO= 0.796708  PHI,EQ.RATIO= 0.796171

                 CHAMBER   THROAT     EXIT
 Pinf/P            1.0000   1.7409   34.202
 P, BAR            30.000   17.233  0.87715
 T, K             3124.03  2936.21  1928.70
 RHO, KG/CU M    3.2432 0 2.0019 0 1.5950-1
 H, KJ/KG         1185.62   690.79 -1404.18
 U, KJ/KG          260.60  -170.02 -1954.11
 G, KJ/KG        -28070.6 -26806.6 -19466.2
 S, KJ/(KG)(K)     9.3649   9.3649   9.3649

 M, (1/n)          28.080   28.361   29.160
 (dLV/dLP)t      -1.01423 -1.01107 -1.00028
 (dLV/dLT)p        1.2978   1.2477   1.0101
 Cp, KJ/(KG)(K)    3.4660   3.2308   1.5848
 GAMMAs            1.1490   1.1497   1.2244
 SON VEL,M/SEC     1030.9    994.8    820.6
 MACH NUMBER        0.000    1.000    2.773

 PERFORMANCE PARAMETERS

 Ae/At                      1.0000   5.4862
 CSTAR, M/SEC               1506.4   1506.4
 CF                         0.6604   1.5108
 Ivac, M/SEC                1860.1   2517.5
 Isp, M/SEC                  994.8   2275.9


 MOLE FRACTIONS

 *CO              0.04233  0.03177  0.00050
 *CO2             0.11272  0.12482  0.16052
 *H               0.00342  0.00222  0.00001
 HNO              0.00001  0.00000  0.00000
 HO2              0.00006  0.00004  0.00000
 *H2              0.00674  0.00505  0.00012
 H2O              0.13729  0.14404  0.16468
 *NO              0.02555  0.02047  0.00295
 NO2              0.00004  0.00003  0.00000
 *N2              0.57501  0.58344  0.60895
 N2O              0.00001  0.00000  0.00000
 *O               0.00772  0.00539  0.00010
 *OH              0.02736  0.02167  0.00158
 *O2              0.06173  0.06106  0.06060

  * THERMODYNAMIC PROPERTIES FITTED TO 20000.K

 NOTE. WEIGHT FRACTION OF FUEL IN TOTAL FUELS AND OF OXIDANT IN TOTAL OXIDANTS










              THEORETICAL ROCKET PERFORMANCE ASSUMING EQUILIBRIUM

           COMPOSITION DURING EXPANSION FROM INFINITE AREA COMBUSTOR

 Pin =   435.1 PSIA
 CASE =                

             REACTANT                    WT FRACTION      ENERGY      TEMP
                                          (SEE NOTE)     KJ/KG-MOL      K  
 FUEL        C32H66(a)                    0.9000000   -967800.000    298.150
 FUEL        stearic                      0.1000000   -912000.000    298.150
 OXIDANT     N2O(L),298.15K               1.0000000     65100.000    298.150

 O/F=   11.85710  %FUEL=  7.777804  R,EQ.RATIO= 0.787138  PHI,EQ.RATIO= 0.786583

                 CHAMBER   THROAT     EXIT
 Pinf/P            1.0000   1.7414   34.202
 P, BAR            30.000   17.228  0.87715
 T, K             3117.79  2929.20  1915.09
 RHO, KG/CU M    3.2535 0 2.0083 0 1.6066-1
 H, KJ/KG         1188.88   695.45 -1389.01
 U, KJ/KG          266.80  -162.39 -1934.99
 G, KJ/KG        -27966.5 -26696.4 -19297.6
 S, KJ/(KG)(K)     9.3513   9.3513   9.3513

 M, (1/n)          28.114   28.391   29.164
 (dLV/dLP)t      -1.01392 -1.01075 -1.00025
 (dLV/dLT)p        1.2919   1.2411   1.0091
 Cp, KJ/(KG)(K)    3.4295   3.1883   1.5714
 GAMMAs            1.1494   1.1504   1.2262
 SON VEL,M/SEC     1029.5    993.4    818.2
 MACH NUMBER        0.000    1.000    2.775

 PERFORMANCE PARAMETERS

 Ae/At                      1.0000   5.4690
 CSTAR, M/SEC               1503.7   1503.7
 CF                         0.6606   1.5100
 Ivac, M/SEC                1856.9   2511.1
 Isp, M/SEC                  993.4   2270.6


 MOLE FRACTIONS

 *CO              0.04080  0.03037  0.00042
 *CO2             0.11271  0.12465  0.15882
 *H               0.00329  0.00211  0.00001
 HNO              0.00001  0.00000  0.00000
 HO2              0.00006  0.00004  0.00000
 *H2              0.00646  0.00480  0.00010
 H2O              0.13617  0.14284  0.16293
 *NO              0.02580  0.02065  0.00291
 NO2              0.00004  0.00003  0.00000
 *N2              0.57614  0.58454  0.60963
 N2O              0.00001  0.00000  0.00000
 *O               0.00769  0.00534  0.00009
 *OH              0.02713  0.02143  0.00148
 *O2              0.06369  0.06318  0.06360

  * THERMODYNAMIC PROPERTIES FITTED TO 20000.K

 NOTE. WEIGHT FRACTION OF FUEL IN TOTAL FUELS AND OF OXIDANT IN TOTAL OXIDANTS










              THEORETICAL ROCKET PERFORMANCE ASSUMING EQUILIBRIUM

           COMPOSITION DURING EXPANSION FROM INFINITE AREA COMBUSTOR

 Pin =   435.1 PSIA
 CASE =                

             REACTANT                    WT FRACTION      ENERGY      TEMP
                                          (SEE NOTE)     KJ/KG-MOL      K  
 FUEL        C32H66(a)                    0.9000000   -967800.000    298.150
 FUEL        stearic                      0.1000000   -912000.000    298.150
 OXIDANT     N2O(L),298.15K               1.0000000     65100.000    298.150

 O/F=   12.00000  %FUEL=  7.692308  R,EQ.RATIO= 0.777789  PHI,EQ.RATIO= 0.777216

                 CHAMBER   THROAT     EXIT
 Pinf/P            1.0000   1.7418   34.202
 P, BAR            30.000   17.223  0.87715
 T, K             3111.50  2922.13  1901.73
 RHO, KG/CU M    3.2638 0 2.0147 0 1.6181-1
 H, KJ/KG         1192.07   700.02 -1374.02
 U, KJ/KG          272.90  -154.86 -1916.12
 G, KJ/KG        -27863.1 -26586.7 -19132.3
 S, KJ/(KG)(K)     9.3380   9.3380   9.3380

 M, (1/n)          28.146   28.420   29.168
 (dLV/dLP)t      -1.01361 -1.01043 -1.00022
 (dLV/dLT)p        1.2860   1.2346   1.0082
 Cp, KJ/(KG)(K)    3.3933   3.1463   1.5591
 GAMMAs            1.1499   1.1512   1.2279
 SON VEL,M/SEC     1028.1    992.0    815.9
 MACH NUMBER        0.000    1.000    2.777

 PERFORMANCE PARAMETERS

 Ae/At                      1.0000   5.4523
 CSTAR, M/SEC               1501.0   1501.0
 CF                         0.6609   1.5092
 Ivac, M/SEC                1853.8   2504.7
 Isp, M/SEC                  992.0   2265.4


 MOLE FRACTIONS

 *CO              0.03933  0.02904  0.00036
 *CO2             0.11266  0.12444  0.15715
 *H               0.00316  0.00201  0.00001
 HNO              0.00001  0.00000  0.00000
 HO2              0.00006  0.00004  0.00000
 *H2              0.00619  0.00457  0.00009
 H2O              0.13507  0.14166  0.16121
 *NO              0.02603  0.02082  0.00286
 NO2              0.00004  0.00003  0.00000
 *N2              0.57725  0.58562  0.61030
 N2O              0.00001  0.00000  0.00000
 *O               0.00765  0.00530  0.00008
 *OH              0.02689  0.02118  0.00138
 *O2              0.06564  0.06528  0.06655

  * THERMODYNAMIC PROPERTIES FITTED TO 20000.K

 NOTE. WEIGHT FRACTION OF FUEL IN TOTAL FUELS AND OF OXIDANT IN TOTAL OXIDANTS



