
 *******************************************************************************

         NASA-GLENN CHEMICAL EQUILIBRIUM PROGRAM CEA2, MAY 21, 2004
                   BY  BONNIE MCBRIDE AND SANFORD GORDON
      REFS: NASA RP-1311, PART I, 1994 AND NASA RP-1311, PART II, 1996

 *******************************************************************************



 problem
 o/f=5.0000,5.1429,5.2857,5.4286,5.5714,
 5.7143,5.8571,6.0000,6.1429,6.2857,
 6.4286,6.5714,6.7143,6.8571,7.0000,
 7.1429,7.2857,7.4286,7.5714,7.7143,
 7.8571,8.0000,8.1429,8.2857,8.4286,
 8.5714,8.7143,8.8571,9.0000,9.1429,
 9.2857,9.4286,9.5714,9.7143,9.8571,
 10.0000,10.1429,10.2857,10.4286,10.5714,
 10.7143,10.8571,11.0000,11.1429,11.2857,
 11.4286,11.5714,11.7143,11.8571,12.0000,
     rocket  eql
   p,bar=20.0000,
   pi/p=22.8010,
 react
   fuel=C32H66(a) wt=0.900 t,k=298.150
   fuel=stearic wt=0.100 t,k=298.150
   h,kj/mol=-912.000 C 18 H 36 O 2
   oxid=N2O(L),298.15K wt=1.000 t,k=298.150
 output siunits short
 end





              THEORETICAL ROCKET PERFORMANCE ASSUMING EQUILIBRIUM

           COMPOSITION DURING EXPANSION FROM INFINITE AREA COMBUSTOR

 Pin =   290.1 PSIA
 CASE =                

             REACTANT                    WT FRACTION      ENERGY      TEMP
                                          (SEE NOTE)     KJ/KG-MOL      K  
 FUEL        C32H66(a)                    0.9000000   -967800.000    298.150
 FUEL        stearic                      0.1000000   -912000.000    298.150
 OXIDANT     N2O(L),298.15K               1.0000000     65100.000    298.150

 O/F=    5.00000  %FUEL= 16.666667  R,EQ.RATIO= 1.859996  PHI,EQ.RATIO= 1.865318

                 CHAMBER   THROAT     EXIT
 Pinf/P            1.0000   1.7982   22.801
 P, BAR            20.000   11.122  0.87715
 T, K             2800.74  2513.30  1483.11
 RHO, KG/CU M    2.0035 0 1.2451 0 1.6671-1
 H, KJ/KG          857.18   302.48 -1466.75
 U, KJ/KG         -141.08  -590.84 -1992.90
 G, KJ/KG        -28896.7 -26397.8 -17222.7
 S, KJ/(KG)(K)    10.6236  10.6236  10.6236

 M, (1/n)          23.327   23.392   23.437
 (dLV/dLP)t      -1.00238 -1.00096 -1.00000
 (dLV/dLT)p        1.0500   1.0219   1.0001
 Cp, KJ/(KG)(K)    2.1134   1.8963   1.6476
 GAMMAs            1.2248   1.2419   1.2745
 SON VEL,M/SEC     1105.8   1053.3    818.9
 MACH NUMBER        0.000    1.000    2.633

 PERFORMANCE PARAMETERS

 Ae/At                      1.0000   3.6488
 CSTAR, M/SEC               1525.1   1525.1
 CF                         0.6906   1.4136
 Ivac, M/SEC                1901.4   2399.9
 Isp, M/SEC                 1053.3   2155.9


 MOLE FRACTIONS

 *CO              0.23967  0.23788  0.21599
 *CO2             0.03327  0.03582  0.05824
 *H               0.00689  0.00304  0.00001
 *H2              0.14046  0.14426  0.16799
 H2O              0.13577  0.13538  0.11403
 NH3              0.00001  0.00000  0.00000
 *NO              0.00028  0.00007  0.00000
 *N2              0.44153  0.44287  0.44375
 *O               0.00006  0.00001  0.00000
 *OH              0.00204  0.00066  0.00000
 *O2              0.00002  0.00000  0.00000

  * THERMODYNAMIC PROPERTIES FITTED TO 20000.K

 NOTE. WEIGHT FRACTION OF FUEL IN TOTAL FUELS AND OF OXIDANT IN TOTAL OXIDANTS










              THEORETICAL ROCKET PERFORMANCE ASSUMING EQUILIBRIUM

           COMPOSITION DURING EXPANSION FROM INFINITE AREA COMBUSTOR

 Pin =   290.1 PSIA
 CASE =                

             REACTANT                    WT FRACTION      ENERGY      TEMP
                                          (SEE NOTE)     KJ/KG-MOL      K  
 FUEL        C32H66(a)                    0.9000000   -967800.000    298.150
 FUEL        stearic                      0.1000000   -912000.000    298.150
 OXIDANT     N2O(L),298.15K               1.0000000     65100.000    298.150

 O/F=    5.14290  %FUEL= 16.278956  R,EQ.RATIO= 1.808623  PHI,EQ.RATIO= 1.813489

                 CHAMBER   THROAT     EXIT
 Pinf/P            1.0000   1.7949   22.801
 P, BAR            20.000   11.143  0.87715
 T, K             2847.58  2563.24  1521.55
 RHO, KG/CU M    1.9904 0 1.2359 0 1.6429-1
 H, KJ/KG          871.65   314.31 -1477.77
 U, KJ/KG         -133.19  -587.26 -2011.69
 G, KJ/KG        -29270.3 -26817.8 -17583.5
 S, KJ/(KG)(K)    10.5851  10.5851  10.5851

 M, (1/n)          23.562   23.639   23.694
 (dLV/dLP)t      -1.00285 -1.00119 -1.00000
 (dLV/dLT)p        1.0597   1.0270   1.0001
 Cp, KJ/(KG)(K)    2.1737   1.9285   1.6417
 GAMMAs            1.2187   1.2364   1.2719
 SON VEL,M/SEC     1106.6   1055.8    824.1
 MACH NUMBER        0.000    1.000    2.630

 PERFORMANCE PARAMETERS

 Ae/At                      1.0000   3.6642
 CSTAR, M/SEC               1532.7   1532.7
 CF                         0.6888   1.4143
 Ivac, M/SEC                1909.7   2414.0
 Isp, M/SEC                 1055.8   2167.7


 MOLE FRACTIONS

 *CO              0.23311  0.23135  0.20991
 *CO2             0.03617  0.03881  0.06088
 *H               0.00778  0.00361  0.00001
 *H2              0.12954  0.13323  0.15673
 H2O              0.14214  0.14232  0.12175
 *NO              0.00041  0.00011  0.00000
 *N2              0.44799  0.44960  0.45071
 *O               0.00009  0.00002  0.00000
 *OH              0.00272  0.00094  0.00000
 *O2              0.00004  0.00001  0.00000

  * THERMODYNAMIC PROPERTIES FITTED TO 20000.K

 NOTE. WEIGHT FRACTION OF FUEL IN TOTAL FUELS AND OF OXIDANT IN TOTAL OXIDANTS










              THEORETICAL ROCKET PERFORMANCE ASSUMING EQUILIBRIUM

           COMPOSITION DURING EXPANSION FROM INFINITE AREA COMBUSTOR

 Pin =   290.1 PSIA
 CASE =                

             REACTANT                    WT FRACTION      ENERGY      TEMP
                                          (SEE NOTE)     KJ/KG-MOL      K  
 FUEL        C32H66(a)                    0.9000000   -967800.000    298.150
 FUEL        stearic                      0.1000000   -912000.000    298.150
 OXIDANT     N2O(L),298.15K               1.0000000     65100.000    298.150

 O/F=    5.28570  %FUEL= 15.909127  R,EQ.RATIO= 1.760046  PHI,EQ.RATIO= 1.764495

                 CHAMBER   THROAT     EXIT
 Pinf/P            1.0000   1.7915   22.801
 P, BAR            20.000   11.164  0.87715
 T, K             2891.01  2610.56  1558.99
 RHO, KG/CU M    1.9792 0 1.2281 0 1.6204-1
 H, KJ/KG          885.45   326.05 -1487.68
 U, KJ/KG         -125.03  -583.02 -2029.00
 G, KJ/KG        -29606.7 -27208.1 -17930.7
 S, KJ/(KG)(K)    10.5472  10.5472  10.5472

 M, (1/n)          23.788   23.877   23.945
 (dLV/dLP)t      -1.00339 -1.00146 -1.00001
 (dLV/dLT)p        1.0706   1.0329   1.0001
 Cp, KJ/(KG)(K)    2.2423   1.9665   1.6363
 GAMMAs            1.2125   1.2307   1.2695
 SON VEL,M/SEC     1106.9   1057.7    829.0
 MACH NUMBER        0.000    1.000    2.628

 PERFORMANCE PARAMETERS

 Ae/At                      1.0000   3.6796
 CSTAR, M/SEC               1539.7   1539.7
 CF                         0.6870   1.4150
 Ivac, M/SEC                1917.2   2427.1
 Isp, M/SEC                 1057.7   2178.6


 MOLE FRACTIONS

 *CO              0.22650  0.22475  0.20382
 *CO2             0.03917  0.04193  0.06362
 *H               0.00863  0.00421  0.00001
 *H2              0.11926  0.12276  0.14593
 H2O              0.14788  0.14873  0.12911
 *NO              0.00058  0.00017  0.00000
 *N2              0.45419  0.45610  0.45750
 *O               0.00015  0.00003  0.00000
 *OH              0.00354  0.00131  0.00000
 *O2              0.00007  0.00001  0.00000

  * THERMODYNAMIC PROPERTIES FITTED TO 20000.K

 NOTE. WEIGHT FRACTION OF FUEL IN TOTAL FUELS AND OF OXIDANT IN TOTAL OXIDANTS










              THEORETICAL ROCKET PERFORMANCE ASSUMING EQUILIBRIUM

           COMPOSITION DURING EXPANSION FROM INFINITE AREA COMBUSTOR

 Pin =   290.1 PSIA
 CASE =                

             REACTANT                    WT FRACTION      ENERGY      TEMP
                                          (SEE NOTE)     KJ/KG-MOL      K  
 FUEL        C32H66(a)                    0.9000000   -967800.000    298.150
 FUEL        stearic                      0.1000000   -912000.000    298.150
 OXIDANT     N2O(L),298.15K               1.0000000     65100.000    298.150

 O/F=    5.42860  %FUEL= 15.555486  R,EQ.RATIO= 1.713978  PHI,EQ.RATIO= 1.718047

                 CHAMBER   THROAT     EXIT
 Pinf/P            1.0000   1.7880   22.801
 P, BAR            20.000   11.186  0.87715
 T, K             2931.10  2655.34  1595.56
 RHO, KG/CU M    1.9700 0 1.2214 0 1.5995-1
 H, KJ/KG          898.65   337.73 -1496.54
 U, KJ/KG         -116.60  -578.12 -2044.95
 G, KJ/KG        -29907.3 -27570.0 -18265.9
 S, KJ/(KG)(K)    10.5100  10.5100  10.5100

 M, (1/n)          24.005   24.107   24.191
 (dLV/dLP)t      -1.00399 -1.00177 -1.00001
 (dLV/dLT)p        1.0829   1.0398   1.0002
 Cp, KJ/(KG)(K)    2.3201   2.0113   1.6311
 GAMMAs            1.2064   1.2249   1.2671
 SON VEL,M/SEC     1106.7   1059.2    833.6
 MACH NUMBER        0.000    1.000    2.626

 PERFORMANCE PARAMETERS

 Ae/At                     1.00000   3.6953
 CSTAR, M/SEC               1546.0   1546.0
 CF                         0.6851   1.4157
 Ivac, M/SEC                1923.9   2439.3
 Isp, M/SEC                 1059.2   2188.7


 MOLE FRACTIONS

 *CO              0.21986  0.21806  0.19770
 *CO2             0.04228  0.04519  0.06647
 *H               0.00943  0.00482  0.00002
 *H2              0.10963  0.11285  0.13555
 H2O              0.15300  0.15459  0.13612
 *NO              0.00080  0.00025  0.00000
 *N2              0.46015  0.46239  0.46413
 *O               0.00022  0.00004  0.00000
 *OH              0.00449  0.00177  0.00000
 *O2              0.00012  0.00002  0.00000

  * THERMODYNAMIC PROPERTIES FITTED TO 20000.K

 NOTE. WEIGHT FRACTION OF FUEL IN TOTAL FUELS AND OF OXIDANT IN TOTAL OXIDANTS










              THEORETICAL ROCKET PERFORMANCE ASSUMING EQUILIBRIUM

           COMPOSITION DURING EXPANSION FROM INFINITE AREA COMBUSTOR

 Pin =   290.1 PSIA
 CASE =                

             REACTANT                    WT FRACTION      ENERGY      TEMP
                                          (SEE NOTE)     KJ/KG-MOL      K  
 FUEL        C32H66(a)                    0.9000000   -967800.000    298.150
 FUEL        stearic                      0.1000000   -912000.000    298.150
 OXIDANT     N2O(L),298.15K               1.0000000     65100.000    298.150

 O/F=    5.57140  %FUEL= 15.217457  R,EQ.RATIO= 1.670289  PHI,EQ.RATIO= 1.674012

                 CHAMBER   THROAT     EXIT
 Pinf/P            1.0000   1.7844   22.801
 P, BAR            20.000   11.208  0.87715
 T, K             2967.83  2697.51  1631.27
 RHO, KG/CU M    1.9624 0 1.2157 0 1.5799-1
 H, KJ/KG          911.26   349.36 -1504.41
 U, KJ/KG         -107.90  -572.56 -2059.61
 G, KJ/KG        -30172.5 -27903.1 -18589.6
 S, KJ/(KG)(K)    10.4736  10.4736  10.4736

 M, (1/n)          24.212   24.328   24.429
 (dLV/dLP)t      -1.00466 -1.00214 -1.00001
 (dLV/dLT)p        1.0967   1.0478   1.0003
 Cp, KJ/(KG)(K)    2.4075   2.0639   1.6264
 GAMMAs            1.2003   1.2190   1.2648
 SON VEL,M/SEC     1106.0   1060.1    838.0
 MACH NUMBER        0.000    1.000    2.623

 PERFORMANCE PARAMETERS

 Ae/At                      1.0000   3.7113
 CSTAR, M/SEC               1551.8   1551.8
 CF                         0.6831   1.4164
 Ivac, M/SEC                1929.8   2450.6
 Isp, M/SEC                 1060.1   2198.0


 MOLE FRACTIONS

 *CO              0.21319  0.21131  0.19154
 *CO2             0.04547  0.04859  0.06944
 *H               0.01015  0.00542  0.00003
 *H2              0.10066  0.10352  0.12562
 H2O              0.15748  0.15989  0.14277
 *NO              0.00108  0.00035  0.00000
 *N2              0.46586  0.46846  0.47059
 *O               0.00032  0.00007  0.00000
 *OH              0.00558  0.00234  0.00000
 *O2              0.00020  0.00004  0.00000

  * THERMODYNAMIC PROPERTIES FITTED TO 20000.K

 NOTE. WEIGHT FRACTION OF FUEL IN TOTAL FUELS AND OF OXIDANT IN TOTAL OXIDANTS










              THEORETICAL ROCKET PERFORMANCE ASSUMING EQUILIBRIUM

           COMPOSITION DURING EXPANSION FROM INFINITE AREA COMBUSTOR

 Pin =   290.1 PSIA
 CASE =                

             REACTANT                    WT FRACTION      ENERGY      TEMP
                                          (SEE NOTE)     KJ/KG-MOL      K  
 FUEL        C32H66(a)                    0.9000000   -967800.000    298.150
 FUEL        stearic                      0.1000000   -912000.000    298.150
 OXIDANT     N2O(L),298.15K               1.0000000     65100.000    298.150

 O/F=    5.71430  %FUEL= 14.893585  R,EQ.RATIO= 1.628745  PHI,EQ.RATIO= 1.632149

                 CHAMBER   THROAT     EXIT
 Pinf/P            1.0000   1.7807   22.801
 P, BAR            20.000   11.232  0.87715
 T, K             3001.30  2737.08  1666.23
 RHO, KG/CU M    1.9564 0 1.2112 0 1.5615-1
 H, KJ/KG          923.35   360.98 -1511.35
 U, KJ/KG         -98.922  -566.33 -2073.08
 G, KJ/KG        -30403.4 -28208.0 -18903.0
 S, KJ/(KG)(K)    10.4377  10.4377  10.4377

 M, (1/n)          24.411   24.541   24.663
 (dLV/dLP)t      -1.00541 -1.00256 -1.00001
 (dLV/dLT)p        1.1120   1.0570   1.0003
 Cp, KJ/(KG)(K)    2.5049   2.1255   1.6221
 GAMMAs            1.1944   1.2129   1.2626
 SON VEL,M/SEC     1105.0   1060.5    842.2
 MACH NUMBER        0.000    1.000    2.620

 PERFORMANCE PARAMETERS

 Ae/At                      1.0000   3.7278
 CSTAR, M/SEC               1557.0   1557.0
 CF                         0.6811   1.4172
 Ivac, M/SEC                1934.9   2461.2
 Isp, M/SEC                 1060.5   2206.7


 MOLE FRACTIONS

 *CO              0.20650  0.20448  0.18532
 *CO2             0.04873  0.05212  0.07255
 *H               0.01079  0.00600  0.00004
 *H2              0.09235  0.09478  0.11613
 H2O              0.16134  0.16461  0.14905
 *NO              0.00142  0.00050  0.00000
 *N2              0.47131  0.47430  0.47690
 *O               0.00045  0.00011  0.00000
 *OH              0.00679  0.00302  0.00000
 *O2              0.00031  0.00008  0.00000

  * THERMODYNAMIC PROPERTIES FITTED TO 20000.K

 NOTE. WEIGHT FRACTION OF FUEL IN TOTAL FUELS AND OF OXIDANT IN TOTAL OXIDANTS










              THEORETICAL ROCKET PERFORMANCE ASSUMING EQUILIBRIUM

           COMPOSITION DURING EXPANSION FROM INFINITE AREA COMBUSTOR

 Pin =   290.1 PSIA
 CASE =                

             REACTANT                    WT FRACTION      ENERGY      TEMP
                                          (SEE NOTE)     KJ/KG-MOL      K  
 FUEL        C32H66(a)                    0.9000000   -967800.000    298.150
 FUEL        stearic                      0.1000000   -912000.000    298.150
 OXIDANT     N2O(L),298.15K               1.0000000     65100.000    298.150

 O/F=    5.85710  %FUEL= 14.583424  R,EQ.RATIO= 1.589243  PHI,EQ.RATIO= 1.592356

                 CHAMBER   THROAT     EXIT
 Pinf/P            1.0000   1.7769   22.801
 P, BAR            20.000   11.256  0.87715
 T, K             3031.50  2773.96  1700.44
 RHO, KG/CU M    1.9520 0 1.2076 0 1.5442-1
 H, KJ/KG          934.92   372.59 -1517.37
 U, KJ/KG         -89.680  -559.43 -2085.39
 G, KJ/KG        -30600.9 -28484.1 -19206.6
 S, KJ/(KG)(K)    10.4027  10.4027  10.4027

 M, (1/n)          24.600   24.746   24.891
 (dLV/dLP)t      -1.00624 -1.00304 -1.00001
 (dLV/dLT)p        1.1289   1.0677   1.0005
 Cp, KJ/(KG)(K)    2.6119   2.1970   1.6182
 GAMMAs            1.1886   1.2067   1.2604
 SON VEL,M/SEC     1103.6   1060.5    846.1
 MACH NUMBER        0.000    1.000    2.617

 PERFORMANCE PARAMETERS

 Ae/At                      1.0000   3.7448
 CSTAR, M/SEC               1561.6   1561.6
 CF                         0.6791   1.4181
 Ivac, M/SEC                1939.4   2471.1
 Isp, M/SEC                 1060.5   2214.6


 MOLE FRACTIONS

 *CO              0.19984  0.19759  0.17904
 *CO2             0.05202  0.05576  0.07580
 *H               0.01133  0.00656  0.00005
 *H2              0.08470  0.08663  0.10708
 H2O              0.16460  0.16873  0.15497
 *NO              0.00182  0.00069  0.00000
 *N2              0.47651  0.47991  0.48306
 *O               0.00061  0.00017  0.00000
 *OH              0.00810  0.00382  0.00000
 *O2              0.00047  0.00013  0.00000

  * THERMODYNAMIC PROPERTIES FITTED TO 20000.K

 NOTE. WEIGHT FRACTION OF FUEL IN TOTAL FUELS AND OF OXIDANT IN TOTAL OXIDANTS










              THEORETICAL ROCKET PERFORMANCE ASSUMING EQUILIBRIUM

           COMPOSITION DURING EXPANSION FROM INFINITE AREA COMBUSTOR

 Pin =   290.1 PSIA
 CASE =                

             REACTANT                    WT FRACTION      ENERGY      TEMP
                                          (SEE NOTE)     KJ/KG-MOL      K  
 FUEL        C32H66(a)                    0.9000000   -967800.000    298.150
 FUEL        stearic                      0.1000000   -912000.000    298.150
 OXIDANT     N2O(L),298.15K               1.0000000     65100.000    298.150

 O/F=    6.00000  %FUEL= 14.285714  R,EQ.RATIO= 1.551587  PHI,EQ.RATIO= 1.554432

                 CHAMBER   THROAT     EXIT
 Pinf/P            1.0000   1.7730   22.801
 P, BAR            20.000   11.280  0.87715
 T, K             3058.56  2808.13  1734.02
 RHO, KG/CU M    1.9489 0 1.2050 0 1.5279-1
 H, KJ/KG          946.03   384.21 -1522.51
 U, KJ/KG         -80.172  -551.86 -2096.62
 G, KJ/KG        -30766.2 -28731.5 -19501.5
 S, KJ/(KG)(K)    10.3684  10.3684  10.3684

 M, (1/n)          24.781   24.943   25.113
 (dLV/dLP)t      -1.00714 -1.00360 -1.00002
 (dLV/dLT)p        1.1474   1.0799   1.0006
 Cp, KJ/(KG)(K)    2.7279   2.2798   1.6148
 GAMMAs            1.1831   1.2004   1.2583
 SON VEL,M/SEC     1101.9   1060.0    849.9
 MACH NUMBER        0.000    1.000    2.614

 PERFORMANCE PARAMETERS

 Ae/At                      1.0000   3.7627
 CSTAR, M/SEC               1565.7   1565.7
 CF                         0.6770   1.4191
 Ivac, M/SEC                1943.1   2480.3
 Isp, M/SEC                 1060.0   2222.0


 MOLE FRACTIONS

 *CO              0.19321  0.19066  0.17267
 *CO2             0.05532  0.05949  0.07920
 *H               0.01176  0.00706  0.00007
 *H2              0.07769  0.07908  0.09846
 H2O              0.16727  0.17228  0.16053
 *NO              0.00228  0.00093  0.00000
 *N2              0.48146  0.48529  0.48907
 *O               0.00081  0.00024  0.00000
 *OH              0.00951  0.00474  0.00001
 *O2              0.00068  0.00021  0.00000

  * THERMODYNAMIC PROPERTIES FITTED TO 20000.K

 NOTE. WEIGHT FRACTION OF FUEL IN TOTAL FUELS AND OF OXIDANT IN TOTAL OXIDANTS










              THEORETICAL ROCKET PERFORMANCE ASSUMING EQUILIBRIUM

           COMPOSITION DURING EXPANSION FROM INFINITE AREA COMBUSTOR

 Pin =   290.1 PSIA
 CASE =                

             REACTANT                    WT FRACTION      ENERGY      TEMP
                                          (SEE NOTE)     KJ/KG-MOL      K  
 FUEL        C32H66(a)                    0.9000000   -967800.000    298.150
 FUEL        stearic                      0.1000000   -912000.000    298.150
 OXIDANT     N2O(L),298.15K               1.0000000     65100.000    298.150

 O/F=    6.14290  %FUEL= 13.999916  R,EQ.RATIO= 1.515674  PHI,EQ.RATIO= 1.518272

                 CHAMBER   THROAT     EXIT
 Pinf/P            1.0000   1.7691   22.801
 P, BAR            20.000   11.305  0.87715
 T, K             3082.55  2839.50  1767.00
 RHO, KG/CU M    1.9472 0 1.2034 0 1.5123-1
 H, KJ/KG          956.70   395.81 -1526.80
 U, KJ/KG         -70.425  -543.64 -2106.80
 G, KJ/KG        -30900.8 -28949.7 -19788.3
 S, KJ/(KG)(K)    10.3348  10.3348  10.3348

 M, (1/n)          24.953   25.131   25.330
 (dLV/dLP)t      -1.00810 -1.00424 -1.00003
 (dLV/dLT)p        1.1671   1.0940   1.0008
 Cp, KJ/(KG)(K)    2.8513   2.3743   1.6119
 GAMMAs            1.1780   1.1941   1.2562
 SON VEL,M/SEC     1100.0   1059.1    853.6
 MACH NUMBER        0.000    1.000    2.611

 PERFORMANCE PARAMETERS

 Ae/At                      1.0000   3.7814
 CSTAR, M/SEC               1569.2   1569.2
 CF                         0.6750   1.4203
 Ivac, M/SEC                1946.1   2488.9
 Isp, M/SEC                 1059.1   2228.7


 MOLE FRACTIONS

 *CO              0.18664  0.18372  0.16621
 *CO2             0.05861  0.06327  0.08275
 *H               0.01209  0.00751  0.00009
 *H2              0.07129  0.07214  0.09027
 H2O              0.16940  0.17524  0.16572
 *NO              0.00281  0.00122  0.00000
 *N2              0.48617  0.49044  0.49495
 *O               0.00104  0.00034  0.00000
 *OH              0.01097  0.00578  0.00001
 *O2              0.00097  0.00033  0.00000

  * THERMODYNAMIC PROPERTIES FITTED TO 20000.K

 NOTE. WEIGHT FRACTION OF FUEL IN TOTAL FUELS AND OF OXIDANT IN TOTAL OXIDANTS










              THEORETICAL ROCKET PERFORMANCE ASSUMING EQUILIBRIUM

           COMPOSITION DURING EXPANSION FROM INFINITE AREA COMBUSTOR

 Pin =   290.1 PSIA
 CASE =                

             REACTANT                    WT FRACTION      ENERGY      TEMP
                                          (SEE NOTE)     KJ/KG-MOL      K  
 FUEL        C32H66(a)                    0.9000000   -967800.000    298.150
 FUEL        stearic                      0.1000000   -912000.000    298.150
 OXIDANT     N2O(L),298.15K               1.0000000     65100.000    298.150

 O/F=    6.28570  %FUEL= 13.725517  R,EQ.RATIO= 1.481409  PHI,EQ.RATIO= 1.483779

                 CHAMBER   THROAT     EXIT
 Pinf/P            1.0000   1.7653   22.801
 P, BAR            20.000   11.330  0.87715
 T, K             3103.62  2867.99  1799.39
 RHO, KG/CU M    1.9466 0 1.2025 0 1.4975-1
 H, KJ/KG          966.94   407.36 -1530.22
 U, KJ/KG         -60.470  -534.79 -2115.96
 G, KJ/KG        -31006.4 -29138.5 -20067.5
 S, KJ/(KG)(K)    10.3019  10.3019  10.3019

 M, (1/n)          25.117   25.310   25.543
 (dLV/dLP)t      -1.00912 -1.00496 -1.00003
 (dLV/dLT)p        1.1878   1.1099   1.0010
 Cp, KJ/(KG)(K)    2.9801   2.4808   1.6095
 GAMMAs            1.1732   1.1879   1.2541
 SON VEL,M/SEC     1097.9   1057.9    857.1
 MACH NUMBER        0.000    1.000    2.607

 PERFORMANCE PARAMETERS

 Ae/At                      1.0000   3.8013
 CSTAR, M/SEC               1572.1   1572.1
 CF                         0.6729   1.4215
 Ivac, M/SEC                1948.5   2496.9
 Isp, M/SEC                 1057.9   2234.8


 MOLE FRACTIONS

 *CO              0.18016  0.17681  0.15966
 *CO2             0.06185  0.06707  0.08647
 *H               0.01231  0.00789  0.00011
 *H2              0.06548  0.06578  0.08252
 H2O              0.17103  0.17763  0.17054
 *NO              0.00340  0.00158  0.00000
 *N2              0.49063  0.49534  0.50069
 *O               0.00131  0.00047  0.00000
 *OH              0.01246  0.00691  0.00002
 *O2              0.00134  0.00051  0.00000

  * THERMODYNAMIC PROPERTIES FITTED TO 20000.K

 NOTE. WEIGHT FRACTION OF FUEL IN TOTAL FUELS AND OF OXIDANT IN TOTAL OXIDANTS










              THEORETICAL ROCKET PERFORMANCE ASSUMING EQUILIBRIUM

           COMPOSITION DURING EXPANSION FROM INFINITE AREA COMBUSTOR

 Pin =   290.1 PSIA
 CASE =                

             REACTANT                    WT FRACTION      ENERGY      TEMP
                                          (SEE NOTE)     KJ/KG-MOL      K  
 FUEL        C32H66(a)                    0.9000000   -967800.000    298.150
 FUEL        stearic                      0.1000000   -912000.000    298.150
 OXIDANT     N2O(L),298.15K               1.0000000     65100.000    298.150

 O/F=    6.42860  %FUEL= 13.461487  R,EQ.RATIO= 1.448637  PHI,EQ.RATIO= 1.450797

                 CHAMBER   THROAT     EXIT
 Pinf/P            1.0000   1.7615   22.801
 P, BAR            20.000   11.354  0.87715
 T, K             3121.95  2893.63  1831.31
 RHO, KG/CU M    1.9472 0 1.2025 0 1.4834-1
 H, KJ/KG          976.79   418.84 -1532.81
 U, KJ/KG         -50.327  -525.37 -2124.13
 G, KJ/KG        -31085.2 -29298.2 -20340.0
 S, KJ/(KG)(K)    10.2698  10.2698  10.2698

 M, (1/n)          25.272   25.481   25.750
 (dLV/dLP)t      -1.01018 -1.00576 -1.00004
 (dLV/dLT)p        1.2092   1.1275   1.0013
 Cp, KJ/(KG)(K)    3.1117   2.5987   1.6078
 GAMMAs            1.1688   1.1818   1.2520
 SON VEL,M/SEC     1095.7   1056.4    860.4
 MACH NUMBER        0.000    1.000    2.604

 PERFORMANCE PARAMETERS

 Ae/At                      1.0000   3.8223
 CSTAR, M/SEC               1574.5   1574.5
 CF                         0.6709   1.4229
 Ivac, M/SEC                1950.2   2504.3
 Isp, M/SEC                 1056.4   2240.4


 MOLE FRACTIONS

 *CO              0.17380  0.16994  0.15300
 *CO2             0.06503  0.07086  0.09035
 *H               0.01244  0.00819  0.00014
 *H2              0.06022  0.05999  0.07518
 H2O              0.17220  0.17950  0.17501
 *NO              0.00404  0.00199  0.00000
 *N2              0.49488  0.50001  0.50630
 *O               0.00161  0.00063  0.00000
 *OH              0.01396  0.00812  0.00003
 *O2              0.00180  0.00075  0.00000

  * THERMODYNAMIC PROPERTIES FITTED TO 20000.K

 NOTE. WEIGHT FRACTION OF FUEL IN TOTAL FUELS AND OF OXIDANT IN TOTAL OXIDANTS










              THEORETICAL ROCKET PERFORMANCE ASSUMING EQUILIBRIUM

           COMPOSITION DURING EXPANSION FROM INFINITE AREA COMBUSTOR

 Pin =   290.1 PSIA
 CASE =                

             REACTANT                    WT FRACTION      ENERGY      TEMP
                                          (SEE NOTE)     KJ/KG-MOL      K  
 FUEL        C32H66(a)                    0.9000000   -967800.000    298.150
 FUEL        stearic                      0.1000000   -912000.000    298.150
 OXIDANT     N2O(L),298.15K               1.0000000     65100.000    298.150

 O/F=    6.57140  %FUEL= 13.207597  R,EQ.RATIO= 1.417305  PHI,EQ.RATIO= 1.419270

                 CHAMBER   THROAT     EXIT
 Pinf/P            1.0000   1.7579   22.801
 P, BAR            20.000   11.377  0.87715
 T, K             3137.72  2916.38  1862.73
 RHO, KG/CU M    1.9487 0 1.2032 0 1.4698-1
 H, KJ/KG          986.26   430.17 -1534.55
 U, KJ/KG         -40.047  -515.44 -2131.33
 G, KJ/KG        -31139.2 -29429.2 -20606.1
 S, KJ/(KG)(K)    10.2385  10.2385  10.2385

 M, (1/n)          25.420   25.643   25.952
 (dLV/dLP)t      -1.01125 -1.00665 -1.00005
 (dLV/dLT)p        1.2309   1.1468   1.0016
 Cp, KJ/(KG)(K)    3.2434   2.7263   1.6068
 GAMMAs            1.1649   1.1761   1.2499
 SON VEL,M/SEC     1093.4   1054.6    863.7
 MACH NUMBER        0.000    1.000    2.600

 PERFORMANCE PARAMETERS

 Ae/At                     1.00000   3.8447
 CSTAR, M/SEC               1576.2   1576.2
 CF                         0.6691   1.4245
 Ivac, M/SEC                1951.3   2511.1
 Isp, M/SEC                 1054.6   2245.4


 MOLE FRACTIONS

 *CO              0.16758  0.16317  0.14624
 *CO2             0.06812  0.07460  0.09440
 *H               0.01248  0.00843  0.00017
 HO2              0.00001  0.00000  0.00000
 *H2              0.05546  0.05476  0.06827
 H2O              0.17297  0.18086  0.17911
 *N               0.00001  0.00000  0.00000
 *NO              0.00473  0.00246  0.00000
 *N2              0.49890  0.50444  0.51178
 *O               0.00193  0.00082  0.00000
 *OH              0.01544  0.00939  0.00004
 *O2              0.00236  0.00108  0.00000

  * THERMODYNAMIC PROPERTIES FITTED TO 20000.K

 NOTE. WEIGHT FRACTION OF FUEL IN TOTAL FUELS AND OF OXIDANT IN TOTAL OXIDANTS










              THEORETICAL ROCKET PERFORMANCE ASSUMING EQUILIBRIUM

           COMPOSITION DURING EXPANSION FROM INFINITE AREA COMBUSTOR

 Pin =   290.1 PSIA
 CASE =                

             REACTANT                    WT FRACTION      ENERGY      TEMP
                                          (SEE NOTE)     KJ/KG-MOL      K  
 FUEL        C32H66(a)                    0.9000000   -967800.000    298.150
 FUEL        stearic                      0.1000000   -912000.000    298.150
 OXIDANT     N2O(L),298.15K               1.0000000     65100.000    298.150

 O/F=    6.71430  %FUEL= 12.962939  R,EQ.RATIO= 1.387279  PHI,EQ.RATIO= 1.389064

                 CHAMBER   THROAT     EXIT
 Pinf/P            1.0000   1.7545   22.801
 P, BAR            20.000   11.399  0.87715
 T, K             3151.14  2936.36  1893.76
 RHO, KG/CU M    1.9511 0 1.2045 0 1.4568-1
 H, KJ/KG          995.39   441.35 -1535.46
 U, KJ/KG         -29.655  -505.08 -2137.58
 G, KJ/KG        -31171.0 -29532.6 -20866.7
 S, KJ/(KG)(K)    10.2079  10.2079  10.2079

 M, (1/n)          25.560   25.797   26.150
 (dLV/dLP)t      -1.01231 -1.00759 -1.00007
 (dLV/dLT)p        1.2523   1.1673   1.0020
 Cp, KJ/(KG)(K)    3.3724   2.8615   1.6067
 GAMMAs            1.1614   1.1708   1.2478
 SON VEL,M/SEC     1091.1   1052.7    866.8
 MACH NUMBER        0.000    1.000    2.596

 PERFORMANCE PARAMETERS

 Ae/At                      1.0000   3.8685
 CSTAR, M/SEC               1577.4   1577.4
 CF                         0.6673   1.4263
 Ivac, M/SEC                1951.7   2517.5
 Isp, M/SEC                 1052.7   2249.8


 MOLE FRACTIONS

 *CO              0.16151  0.15652  0.13936
 *CO2             0.07110  0.07824  0.09862
 *H               0.01245  0.00858  0.00020
 HO2              0.00001  0.00000  0.00000
 *H2              0.05117  0.05003  0.06177
 H2O              0.17338  0.18177  0.18286
 *N               0.00001  0.00000  0.00000
 *NO              0.00545  0.00299  0.00000
 *N2              0.50272  0.50864  0.51713
 *O               0.00228  0.00104  0.00000
 *OH              0.01689  0.01068  0.00005
 *O2              0.00303  0.00150  0.00000

  * THERMODYNAMIC PROPERTIES FITTED TO 20000.K

 NOTE. WEIGHT FRACTION OF FUEL IN TOTAL FUELS AND OF OXIDANT IN TOTAL OXIDANTS










              THEORETICAL ROCKET PERFORMANCE ASSUMING EQUILIBRIUM

           COMPOSITION DURING EXPANSION FROM INFINITE AREA COMBUSTOR

 Pin =   290.1 PSIA
 CASE =                

             REACTANT                    WT FRACTION      ENERGY      TEMP
                                          (SEE NOTE)     KJ/KG-MOL      K  
 FUEL        C32H66(a)                    0.9000000   -967800.000    298.150
 FUEL        stearic                      0.1000000   -912000.000    298.150
 OXIDANT     N2O(L),298.15K               1.0000000     65100.000    298.150

 O/F=    6.85710  %FUEL= 12.727342  R,EQ.RATIO= 1.358519  PHI,EQ.RATIO= 1.360136

                 CHAMBER   THROAT     EXIT
 Pinf/P            1.0000   1.7514   22.801
 P, BAR            20.000   11.419  0.87715
 T, K             3162.41  2953.65  1924.37
 RHO, KG/CU M    1.9543 0 1.2063 0 1.4442-1
 H, KJ/KG         1004.18   452.29 -1535.52
 U, KJ/KG         -19.204  -494.36 -2142.88
 G, KJ/KG        -31182.7 -29609.8 -21121.7
 S, KJ/(KG)(K)    10.1780  10.1780  10.1780

 M, (1/n)          25.693   25.942   26.344
 (dLV/dLP)t      -1.01334 -1.00858 -1.00008
 (dLV/dLT)p        1.2731   1.1888   1.0025
 Cp, KJ/(KG)(K)    3.4961   3.0009   1.6076
 GAMMAs            1.1583   1.1660   1.2457
 SON VEL,M/SEC     1088.8   1050.6    869.8
 MACH NUMBER        0.000    1.000    2.591

 PERFORMANCE PARAMETERS

 Ae/At                     1.00000   3.8936
 CSTAR, M/SEC               1578.1   1578.1
 CF                         0.6657   1.4281
 Ivac, M/SEC                1951.7   2523.2
 Isp, M/SEC                 1050.6   2253.8


 MOLE FRACTIONS

 *CO              0.15561  0.15003  0.13238
 *CO2             0.07395  0.08176  0.10301
 *H               0.01235  0.00867  0.00024
 HO2              0.00001  0.00000  0.00000
 *H2              0.04729  0.04579  0.05567
 H2O              0.17348  0.18227  0.18625
 *N               0.00001  0.00000  0.00000
 *NO              0.00621  0.00357  0.00001
 *N2              0.50635  0.51261  0.52237
 *O               0.00265  0.00128  0.00000
 *OH              0.01827  0.01198  0.00008
 *O2              0.00380  0.00202  0.00000

  * THERMODYNAMIC PROPERTIES FITTED TO 20000.K

 NOTE. WEIGHT FRACTION OF FUEL IN TOTAL FUELS AND OF OXIDANT IN TOTAL OXIDANTS










              THEORETICAL ROCKET PERFORMANCE ASSUMING EQUILIBRIUM

           COMPOSITION DURING EXPANSION FROM INFINITE AREA COMBUSTOR

 Pin =   290.1 PSIA
 CASE =                

             REACTANT                    WT FRACTION      ENERGY      TEMP
                                          (SEE NOTE)     KJ/KG-MOL      K  
 FUEL        C32H66(a)                    0.9000000   -967800.000    298.150
 FUEL        stearic                      0.1000000   -912000.000    298.150
 OXIDANT     N2O(L),298.15K               1.0000000     65100.000    298.150

 O/F=    7.00000  %FUEL= 12.500000  R,EQ.RATIO= 1.330907  PHI,EQ.RATIO= 1.332370

                 CHAMBER   THROAT     EXIT
 Pinf/P            1.0000   1.7486   22.801
 P, BAR            20.000   11.438  0.87715
 T, K             3171.76  2968.42  1954.64
 RHO, KG/CU M    1.9581 0 1.2086 0 1.4321-1
 H, KJ/KG         1012.67   463.01 -1534.74
 U, KJ/KG         -8.7185  -483.35 -2147.26
 G, KJ/KG        -31176.8 -29662.8 -21371.9
 S, KJ/(KG)(K)    10.1488  10.1488  10.1488

 M, (1/n)          25.819   26.080   26.533
 (dLV/dLP)t      -1.01433 -1.00959 -1.00010
 (dLV/dLT)p        1.2929   1.2106   1.0031
 Cp, KJ/(KG)(K)    3.6125   3.1412   1.6097
 GAMMAs            1.1557   1.1616   1.2434
 SON VEL,M/SEC     1086.4   1048.5    872.7
 MACH NUMBER        0.000    1.000    2.586

 PERFORMANCE PARAMETERS

 Ae/At                      1.0000   3.9203
 CSTAR, M/SEC               1578.3   1578.3
 CF                         0.6643   1.4301
 Ivac, M/SEC                1951.1   2528.5
 Isp, M/SEC                 1048.5   2257.2


 MOLE FRACTIONS

 *CO              0.14989  0.14372  0.12529
 *CO2             0.07668  0.08514  0.10756
 *H               0.01219  0.00869  0.00028
 HO2              0.00001  0.00000  0.00000
 *H2              0.04380  0.04197  0.04996
 H2O              0.17332  0.18242  0.18930
 *N               0.00001  0.00000  0.00000
 *NO              0.00698  0.00419  0.00001
 *N2              0.50980  0.51638  0.52749
 *O               0.00302  0.00155  0.00000
 *OH              0.01958  0.01326  0.00011
 *O2              0.00468  0.00267  0.00000

  * THERMODYNAMIC PROPERTIES FITTED TO 20000.K

 NOTE. WEIGHT FRACTION OF FUEL IN TOTAL FUELS AND OF OXIDANT IN TOTAL OXIDANTS










              THEORETICAL ROCKET PERFORMANCE ASSUMING EQUILIBRIUM

           COMPOSITION DURING EXPANSION FROM INFINITE AREA COMBUSTOR

 Pin =   290.1 PSIA
 CASE =                

             REACTANT                    WT FRACTION      ENERGY      TEMP
                                          (SEE NOTE)     KJ/KG-MOL      K  
 FUEL        C32H66(a)                    0.9000000   -967800.000    298.150
 FUEL        stearic                      0.1000000   -912000.000    298.150
 OXIDANT     N2O(L),298.15K               1.0000000     65100.000    298.150

 O/F=    7.14290  %FUEL= 12.280637  R,EQ.RATIO= 1.304396  PHI,EQ.RATIO= 1.305715

                 CHAMBER   THROAT     EXIT
 Pinf/P            1.0000   1.7462   22.801
 P, BAR            20.000   11.454  0.87715
 T, K             3179.37  2980.83  1984.55
 RHO, KG/CU M    1.9625 0 1.2113 0 1.4203-1
 H, KJ/KG         1020.85   473.44 -1533.11
 U, KJ/KG          1.7599  -472.16 -2150.70
 G, KJ/KG        -31155.3 -29693.4 -21617.3
 S, KJ/(KG)(K)    10.1203  10.1203  10.1203

 M, (1/n)          25.940   26.210   26.718
 (dLV/dLP)t      -1.01525 -1.01060 -1.00013
 (dLV/dLT)p        1.3115   1.2322   1.0038
 Cp, KJ/(KG)(K)    3.7197   3.2785   1.6135
 GAMMAs            1.1533   1.1578   1.2410
 SON VEL,M/SEC     1084.1   1046.3    875.5
 MACH NUMBER        0.000    1.000    2.582

 PERFORMANCE PARAMETERS

 Ae/At                      1.0000   3.9483
 CSTAR, M/SEC               1578.1   1578.1
 CF                         0.6631   1.4322
 Ivac, M/SEC                1950.1   2533.3
 Isp, M/SEC                 1046.3   2260.1


 MOLE FRACTIONS

 *CO              0.14436  0.13761  0.11808
 *CO2             0.07927  0.08836  0.11227
 *H               0.01199  0.00865  0.00033
 HO2              0.00001  0.00000  0.00000
 *H2              0.04064  0.03856  0.04464
 H2O              0.17294  0.18226  0.19201
 *N               0.00001  0.00000  0.00000
 *NO              0.00777  0.00484  0.00002
 *N2              0.51309  0.51995  0.53249
 *O               0.00340  0.00183  0.00000
 *OH              0.02082  0.01450  0.00016
 *O2              0.00567  0.00343  0.00000

  * THERMODYNAMIC PROPERTIES FITTED TO 20000.K

 NOTE. WEIGHT FRACTION OF FUEL IN TOTAL FUELS AND OF OXIDANT IN TOTAL OXIDANTS










              THEORETICAL ROCKET PERFORMANCE ASSUMING EQUILIBRIUM

           COMPOSITION DURING EXPANSION FROM INFINITE AREA COMBUSTOR

 Pin =   290.1 PSIA
 CASE =                

             REACTANT                    WT FRACTION      ENERGY      TEMP
                                          (SEE NOTE)     KJ/KG-MOL      K  
 FUEL        C32H66(a)                    0.9000000   -967800.000    298.150
 FUEL        stearic                      0.1000000   -912000.000    298.150
 OXIDANT     N2O(L),298.15K               1.0000000     65100.000    298.150

 O/F=    7.28570  %FUEL= 12.068986  R,EQ.RATIO= 1.278938  PHI,EQ.RATIO= 1.280123

                 CHAMBER   THROAT     EXIT
 Pinf/P            1.0000   1.7440   22.801
 P, BAR            20.000   11.468  0.87715
 T, K             3185.44  2991.10  2014.09
 RHO, KG/CU M    1.9674 0 1.2142 0 1.4089-1
 H, KJ/KG         1028.75   483.58 -1530.62
 U, KJ/KG          12.192  -460.84 -2153.20
 G, KJ/KG        -31120.2 -29704.1 -21857.8
 S, KJ/(KG)(K)    10.0925  10.0925  10.0925

 M, (1/n)          26.054   26.333   26.898
 (dLV/dLP)t      -1.01610 -1.01157 -1.00016
 (dLV/dLT)p        1.3284   1.2530   1.0048
 Cp, KJ/(KG)(K)    3.8166   3.4095   1.6194
 GAMMAs            1.1514   1.1545   1.2385
 SON VEL,M/SEC     1081.9   1044.2    878.1
 MACH NUMBER        0.000    1.000    2.577

 PERFORMANCE PARAMETERS

 Ae/At                      1.0000   3.9776
 CSTAR, M/SEC               1577.4   1577.4
 CF                         0.6620   1.4343
 Ivac, M/SEC                1948.6   2537.6
 Isp, M/SEC                 1044.2   2262.5


 MOLE FRACTIONS

 *CO              0.13902  0.13172  0.11079
 *CO2             0.08173  0.09140  0.11712
 *H               0.01176  0.00856  0.00038
 HO2              0.00001  0.00001  0.00000
 *H2              0.03778  0.03550  0.03970
 H2O              0.17237  0.18184  0.19439
 *N               0.00001  0.00000  0.00000
 *NO              0.00857  0.00552  0.00002
 *N2              0.51622  0.52333  0.53738
 *O               0.00379  0.00213  0.00000
 *OH              0.02197  0.01567  0.00022
 *O2              0.00676  0.00432  0.00000

  * THERMODYNAMIC PROPERTIES FITTED TO 20000.K

 NOTE. WEIGHT FRACTION OF FUEL IN TOTAL FUELS AND OF OXIDANT IN TOTAL OXIDANTS










              THEORETICAL ROCKET PERFORMANCE ASSUMING EQUILIBRIUM

           COMPOSITION DURING EXPANSION FROM INFINITE AREA COMBUSTOR

 Pin =   290.1 PSIA
 CASE =                

             REACTANT                    WT FRACTION      ENERGY      TEMP
                                          (SEE NOTE)     KJ/KG-MOL      K  
 FUEL        C32H66(a)                    0.9000000   -967800.000    298.150
 FUEL        stearic                      0.1000000   -912000.000    298.150
 OXIDANT     N2O(L),298.15K               1.0000000     65100.000    298.150

 O/F=    7.42860  %FUEL= 11.864367  R,EQ.RATIO= 1.254438  PHI,EQ.RATIO= 1.255498

                 CHAMBER   THROAT     EXIT
 Pinf/P            1.0000   1.7422   22.801
 P, BAR            20.000   11.480  0.87715
 T, K             3190.13  2999.44  2043.29
 RHO, KG/CU M    1.9727 0 1.2175 0 1.3979-1
 H, KJ/KG         1036.39   493.45 -1527.27
 U, KJ/KG          22.567  -449.44 -2154.75
 G, KJ/KG        -31073.4 -29697.0 -22093.7
 S, KJ/(KG)(K)    10.0653  10.0653  10.0653

 M, (1/n)          26.163   26.450   27.075
 (dLV/dLP)t      -1.01686 -1.01249 -1.00020
 (dLV/dLT)p        1.3437   1.2727   1.0060
 Cp, KJ/(KG)(K)    3.9025   3.5315   1.6279
 GAMMAs            1.1497   1.1517   1.2357
 SON VEL,M/SEC     1079.6   1042.1    880.5
 MACH NUMBER        0.000    1.000    2.572

 PERFORMANCE PARAMETERS

 Ae/At                      1.0000   4.0081
 CSTAR, M/SEC               1576.4   1576.4
 CF                         0.6610   1.4364
 Ivac, M/SEC                1946.9   2541.5
 Isp, M/SEC                 1042.1   2264.4


 MOLE FRACTIONS

 *CO              0.13387  0.12605  0.10339
 *CO2             0.08404  0.09426  0.12212
 *H               0.01149  0.00843  0.00044
 HO2              0.00001  0.00001  0.00000
 *H2              0.03519  0.03275  0.03511
 H2O              0.17165  0.18121  0.19645
 *N               0.00001  0.00000  0.00000
 *NO              0.00936  0.00621  0.00004
 *N2              0.51922  0.52654  0.54215
 *O               0.00416  0.00243  0.00000
 *OH              0.02303  0.01678  0.00030
 *O2              0.00794  0.00532  0.00001

  * THERMODYNAMIC PROPERTIES FITTED TO 20000.K

 NOTE. WEIGHT FRACTION OF FUEL IN TOTAL FUELS AND OF OXIDANT IN TOTAL OXIDANTS










              THEORETICAL ROCKET PERFORMANCE ASSUMING EQUILIBRIUM

           COMPOSITION DURING EXPANSION FROM INFINITE AREA COMBUSTOR

 Pin =   290.1 PSIA
 CASE =                

             REACTANT                    WT FRACTION      ENERGY      TEMP
                                          (SEE NOTE)     KJ/KG-MOL      K  
 FUEL        C32H66(a)                    0.9000000   -967800.000    298.150
 FUEL        stearic                      0.1000000   -912000.000    298.150
 OXIDANT     N2O(L),298.15K               1.0000000     65100.000    298.150

 O/F=    7.57140  %FUEL= 11.666706  R,EQ.RATIO= 1.230875  PHI,EQ.RATIO= 1.231819

                 CHAMBER   THROAT     EXIT
 Pinf/P            1.0000   1.7407   22.801
 P, BAR            20.000   11.490  0.87715
 T, K             3193.61  3006.05  2072.06
 RHO, KG/CU M    1.9784 0 1.2210 0 1.3872-1
 H, KJ/KG         1043.76   503.02 -1523.04
 U, KJ/KG          32.845  -438.01 -2155.34
 G, KJ/KG        -31016.5 -29674.4 -22324.2
 S, KJ/(KG)(K)    10.0389  10.0389  10.0389

 M, (1/n)          26.267   26.560   27.247
 (dLV/dLP)t      -1.01754 -1.01334 -1.00025
 (dLV/dLT)p        1.3572   1.2908   1.0076
 Cp, KJ/(KG)(K)    3.9771   3.6422   1.6403
 GAMMAs            1.1482   1.1493   1.2325
 SON VEL,M/SEC     1077.4   1039.9    882.8
 MACH NUMBER        0.000    1.000    2.567

 PERFORMANCE PARAMETERS

 Ae/At                     1.00000   4.0398
 CSTAR, M/SEC               1575.1   1575.1
 CF                         0.6602   1.4385
 Ivac, M/SEC                1944.8   2544.8
 Isp, M/SEC                 1039.9   2265.7


 MOLE FRACTIONS

 *CO              0.12891  0.12061  0.09593
 *CO2             0.08622  0.09693  0.12723
 *H               0.01121  0.00827  0.00049
 HO2              0.00002  0.00001  0.00000
 *H2              0.03284  0.03028  0.03087
 H2O              0.17079  0.18040  0.19819
 *N               0.00001  0.00000  0.00000
 *NO              0.01015  0.00691  0.00006
 *N2              0.52208  0.52960  0.54681
 *O               0.00453  0.00274  0.00000
 *OH              0.02400  0.01781  0.00040
 *O2              0.00922  0.00644  0.00001

  * THERMODYNAMIC PROPERTIES FITTED TO 20000.K

 NOTE. WEIGHT FRACTION OF FUEL IN TOTAL FUELS AND OF OXIDANT IN TOTAL OXIDANTS










              THEORETICAL ROCKET PERFORMANCE ASSUMING EQUILIBRIUM

           COMPOSITION DURING EXPANSION FROM INFINITE AREA COMBUSTOR

 Pin =   290.1 PSIA
 CASE =                

             REACTANT                    WT FRACTION      ENERGY      TEMP
                                          (SEE NOTE)     KJ/KG-MOL      K  
 FUEL        C32H66(a)                    0.9000000   -967800.000    298.150
 FUEL        stearic                      0.1000000   -912000.000    298.150
 OXIDANT     N2O(L),298.15K               1.0000000     65100.000    298.150

 O/F=    7.71430  %FUEL= 11.475391  R,EQ.RATIO= 1.208165  PHI,EQ.RATIO= 1.209000

                 CHAMBER   THROAT     EXIT
 Pinf/P            1.0000   1.7394   22.801
 P, BAR            20.000   11.498  0.87715
 T, K             3196.02  3011.13  2100.38
 RHO, KG/CU M    1.9844 0 1.2246 0 1.3769-1
 H, KJ/KG         1050.90   512.33 -1517.92
 U, KJ/KG          43.022  -426.59 -2154.95
 G, KJ/KG        -30951.0 -29638.2 -22549.1
 S, KJ/(KG)(K)    10.0130  10.0130  10.0130

 M, (1/n)          26.366   26.665   27.414
 (dLV/dLP)t      -1.01812 -1.01411 -1.00032
 (dLV/dLT)p        1.3690   1.3071   1.0098
 Cp, KJ/(KG)(K)    4.0406   3.7404   1.6578
 GAMMAs            1.1470   1.1472   1.2289
 SON VEL,M/SEC     1075.2   1037.9    884.8
 MACH NUMBER        0.000    1.000    2.562

 PERFORMANCE PARAMETERS

 Ae/At                     1.00000   4.0724
 CSTAR, M/SEC               1573.6   1573.6
 CF                         0.6596   1.4405
 Ivac, M/SEC                1942.5   2547.7
 Isp, M/SEC                 1037.9   2266.6


 MOLE FRACTIONS

 *CO              0.12414  0.11539  0.08840
 *CO2             0.08827  0.09942  0.13245
 *H               0.01091  0.00808  0.00055
 HO2              0.00002  0.00001  0.00000
 *H2              0.03070  0.02805  0.02697
 H2O              0.16983  0.17945  0.19962
 *N               0.00001  0.00000  0.00000
 *NO              0.01093  0.00761  0.00009
 NO2              0.00001  0.00000  0.00000
 *N2              0.52482  0.53251  0.55135
 *O               0.00489  0.00304  0.00001
 *OH              0.02488  0.01875  0.00054
 *O2              0.01058  0.00768  0.00002

  * THERMODYNAMIC PROPERTIES FITTED TO 20000.K

 NOTE. WEIGHT FRACTION OF FUEL IN TOTAL FUELS AND OF OXIDANT IN TOTAL OXIDANTS










              THEORETICAL ROCKET PERFORMANCE ASSUMING EQUILIBRIUM

           COMPOSITION DURING EXPANSION FROM INFINITE AREA COMBUSTOR

 Pin =   290.1 PSIA
 CASE =                

             REACTANT                    WT FRACTION      ENERGY      TEMP
                                          (SEE NOTE)     KJ/KG-MOL      K  
 FUEL        C32H66(a)                    0.9000000   -967800.000    298.150
 FUEL        stearic                      0.1000000   -912000.000    298.150
 OXIDANT     N2O(L),298.15K               1.0000000     65100.000    298.150

 O/F=    7.85710  %FUEL= 11.290377  R,EQ.RATIO= 1.186293  PHI,EQ.RATIO= 1.187027

                 CHAMBER   THROAT     EXIT
 Pinf/P            1.0000   1.7383   22.801
 P, BAR            20.000   11.506  0.87715
 T, K             3197.48  3014.84  2128.08
 RHO, KG/CU M    1.9906 0 1.2285 0 1.3671-1
 H, KJ/KG         1057.81   521.36 -1511.90
 U, KJ/KG          53.069  -415.23 -2153.52
 G, KJ/KG        -30878.1 -29590.3 -22766.8
 S, KJ/(KG)(K)     9.9878   9.9878   9.9878

 M, (1/n)          26.460   26.764   27.577
 (dLV/dLP)t      -1.01862 -1.01478 -1.00042
 (dLV/dLT)p        1.3790   1.3214   1.0128
 Cp, KJ/(KG)(K)    4.0933   3.8251   1.6827
 GAMMAs            1.1460   1.1455   1.2245
 SON VEL,M/SEC     1073.0   1035.8    886.4
 MACH NUMBER        0.000    1.000    2.558

 PERFORMANCE PARAMETERS

 Ae/At                      1.0000   4.1056
 CSTAR, M/SEC               1571.8   1571.8
 CF                         0.6590   1.4423
 Ivac, M/SEC                1940.0   2550.0
 Isp, M/SEC                 1035.8   2267.0


 MOLE FRACTIONS

 *CO              0.11955  0.11040  0.08084
 *CO2             0.09018  0.10174  0.13774
 *H               0.01060  0.00787  0.00061
 HO2              0.00002  0.00001  0.00000
 *H2              0.02875  0.02605  0.02340
 H2O              0.16879  0.17837  0.20074
 *N               0.00001  0.00000  0.00000
 *NO              0.01170  0.00830  0.00013
 NO2              0.00001  0.00000  0.00000
 *N2              0.52745  0.53528  0.55576
 *O               0.00524  0.00333  0.00001
 *OH              0.02568  0.01961  0.00073
 *O2              0.01202  0.00902  0.00004

  * THERMODYNAMIC PROPERTIES FITTED TO 20000.K

 NOTE. WEIGHT FRACTION OF FUEL IN TOTAL FUELS AND OF OXIDANT IN TOTAL OXIDANTS










              THEORETICAL ROCKET PERFORMANCE ASSUMING EQUILIBRIUM

           COMPOSITION DURING EXPANSION FROM INFINITE AREA COMBUSTOR

 Pin =   290.1 PSIA
 CASE =                

             REACTANT                    WT FRACTION      ENERGY      TEMP
                                          (SEE NOTE)     KJ/KG-MOL      K  
 FUEL        C32H66(a)                    0.9000000   -967800.000    298.150
 FUEL        stearic                      0.1000000   -912000.000    298.150
 OXIDANT     N2O(L),298.15K               1.0000000     65100.000    298.150

 O/F=    8.00000  %FUEL= 11.111111  R,EQ.RATIO= 1.165185  PHI,EQ.RATIO= 1.165824

                 CHAMBER   THROAT     EXIT
 Pinf/P            1.0000   1.7374   22.801
 P, BAR            20.000   11.512  0.87715
 T, K             3198.10  3017.35  2155.00
 RHO, KG/CU M    1.9970 0 1.2324 0 1.3578-1
 H, KJ/KG         1064.49   530.15 -1504.97
 U, KJ/KG          62.988  -403.93 -2151.00
 G, KJ/KG        -30798.8 -29532.4 -22975.7
 S, KJ/(KG)(K)     9.9632   9.9632   9.9632

 M, (1/n)          26.551   26.858   27.735
 (dLV/dLP)t      -1.01903 -1.01535 -1.00055
 (dLV/dLT)p        1.3873   1.3337   1.0169
 Cp, KJ/(KG)(K)    4.1359   3.8964   1.7186
 GAMMAs            1.1451   1.1441   1.2193
 SON VEL,M/SEC     1070.9   1033.8    887.5
 MACH NUMBER        0.000    1.000    2.554

 PERFORMANCE PARAMETERS

 Ae/At                     1.00000   4.1392
 CSTAR, M/SEC               1569.8   1569.8
 CF                         0.6585   1.4441
 Ivac, M/SEC                1937.3   2551.9
 Isp, M/SEC                 1033.8   2266.9


 MOLE FRACTIONS

 *CO              0.11513  0.10562  0.07328
 *CO2             0.09197  0.10388  0.14307
 *H               0.01028  0.00765  0.00066
 HO2              0.00002  0.00001  0.00000
 *H2              0.02697  0.02423  0.02013
 H2O              0.16767  0.17721  0.20155
 *N               0.00001  0.00000  0.00000
 *NO              0.01245  0.00899  0.00019
 NO2              0.00001  0.00000  0.00000
 *N2              0.52998  0.53793  0.56005
 *O               0.00557  0.00362  0.00002
 *OH              0.02639  0.02039  0.00096
 *O2              0.01353  0.01045  0.00008

  * THERMODYNAMIC PROPERTIES FITTED TO 20000.K

 NOTE. WEIGHT FRACTION OF FUEL IN TOTAL FUELS AND OF OXIDANT IN TOTAL OXIDANTS










              THEORETICAL ROCKET PERFORMANCE ASSUMING EQUILIBRIUM

           COMPOSITION DURING EXPANSION FROM INFINITE AREA COMBUSTOR

 Pin =   290.1 PSIA
 CASE =                

             REACTANT                    WT FRACTION      ENERGY      TEMP
                                          (SEE NOTE)     KJ/KG-MOL      K  
 FUEL        C32H66(a)                    0.9000000   -967800.000    298.150
 FUEL        stearic                      0.1000000   -912000.000    298.150
 OXIDANT     N2O(L),298.15K               1.0000000     65100.000    298.150

 O/F=    8.14290  %FUEL= 10.937449  R,EQ.RATIO= 1.144814  PHI,EQ.RATIO= 1.145365

                 CHAMBER   THROAT     EXIT
 Pinf/P            1.0000   1.7366   22.801
 P, BAR            20.000   11.517  0.87715
 T, K             3197.97  3018.80  2180.78
 RHO, KG/CU M    2.0036 0 1.2365 0 1.3491-1
 H, KJ/KG         1070.98   538.69 -1497.11
 U, KJ/KG          72.761  -392.73 -2147.30
 G, KJ/KG        -30714.3 -29465.8 -23172.3
 S, KJ/(KG)(K)     9.9392   9.9392   9.9392

 M, (1/n)          26.637   26.948   27.888
 (dLV/dLP)t      -1.01935 -1.01583 -1.00075
 (dLV/dLT)p        1.3941   1.3439   1.0229
 Cp, KJ/(KG)(K)    4.1689   3.9543   1.7705
 GAMMAs            1.1444   1.1430   1.2128
 SON VEL,M/SEC     1068.8   1031.8    888.0
 MACH NUMBER        0.000    1.000    2.552

 PERFORMANCE PARAMETERS

 Ae/At                      1.0000   4.1726
 CSTAR, M/SEC               1567.7   1567.7
 CF                         0.6582   1.4456
 Ivac, M/SEC                1934.5   2553.2
 Isp, M/SEC                 1031.8   2266.3


 MOLE FRACTIONS

 *CO              0.11089  0.10106  0.06577
 *CO2             0.09364  0.10586  0.14837
 *H               0.00996  0.00742  0.00071
 HO2              0.00002  0.00001  0.00000
 *H2              0.02533  0.02258  0.01718
 H2O              0.16650  0.17597  0.20206
 *N               0.00001  0.00000  0.00000
 *NO              0.01319  0.00966  0.00028
 NO2              0.00001  0.00000  0.00000
 *N2              0.53241  0.54048  0.56418
 *O               0.00588  0.00389  0.00003
 *OH              0.02703  0.02109  0.00126
 *O2              0.01511  0.01198  0.00016

  * THERMODYNAMIC PROPERTIES FITTED TO 20000.K

 NOTE. WEIGHT FRACTION OF FUEL IN TOTAL FUELS AND OF OXIDANT IN TOTAL OXIDANTS










              THEORETICAL ROCKET PERFORMANCE ASSUMING EQUILIBRIUM

           COMPOSITION DURING EXPANSION FROM INFINITE AREA COMBUSTOR

 Pin =   290.1 PSIA
 CASE =                

             REACTANT                    WT FRACTION      ENERGY      TEMP
                                          (SEE NOTE)     KJ/KG-MOL      K  
 FUEL        C32H66(a)                    0.9000000   -967800.000    298.150
 FUEL        stearic                      0.1000000   -912000.000    298.150
 OXIDANT     N2O(L),298.15K               1.0000000     65100.000    298.150

 O/F=    8.28570  %FUEL= 10.769247  R,EQ.RATIO= 1.125158  PHI,EQ.RATIO= 1.125625

                 CHAMBER   THROAT     EXIT
 Pinf/P            1.0000   1.7360   22.801
 P, BAR            20.000   11.520  0.87715
 T, K             3197.20  3019.33  2204.93
 RHO, KG/CU M    2.0103 0 1.2406 0 1.3413-1
 H, KJ/KG         1077.25   546.98 -1488.32
 U, KJ/KG          82.375  -381.64 -2142.29
 G, KJ/KG        -30625.4 -29391.9 -23351.8
 S, KJ/(KG)(K)     9.9158   9.9158   9.9158

 M, (1/n)          26.720   27.034   28.033
 (dLV/dLP)t      -1.01961 -1.01621 -1.00103
 (dLV/dLT)p        1.3993   1.3522   1.0315
 Cp, KJ/(KG)(K)    4.1931   3.9997   1.8456
 GAMMAs            1.1438   1.1420   1.2047
 SON VEL,M/SEC     1066.7   1029.8    887.6
 MACH NUMBER        0.000    1.000    2.552

 PERFORMANCE PARAMETERS

 Ae/At                     1.00000   4.2050
 CSTAR, M/SEC               1565.5   1565.5
 CF                         0.6578   1.4470
 Ivac, M/SEC                1931.6   2553.9
 Isp, M/SEC                 1029.8   2265.2


 MOLE FRACTIONS

 *CO              0.10682  0.09670  0.05839
 *CO2             0.09519  0.10769  0.15355
 *H               0.00964  0.00718  0.00075
 HO2              0.00002  0.00001  0.00000
 *H2              0.02383  0.02108  0.01453
 H2O              0.16529  0.17467  0.20225
 *N               0.00001  0.00000  0.00000
 *NO              0.01390  0.01032  0.00041
 NO2              0.00001  0.00001  0.00000
 *N2              0.53475  0.54291  0.56813
 *O               0.00618  0.00415  0.00005
 *OH              0.02759  0.02170  0.00163
 *O2              0.01674  0.01358  0.00031

  * THERMODYNAMIC PROPERTIES FITTED TO 20000.K

 NOTE. WEIGHT FRACTION OF FUEL IN TOTAL FUELS AND OF OXIDANT IN TOTAL OXIDANTS










              THEORETICAL ROCKET PERFORMANCE ASSUMING EQUILIBRIUM

           COMPOSITION DURING EXPANSION FROM INFINITE AREA COMBUSTOR

 Pin =   290.1 PSIA
 CASE =                

             REACTANT                    WT FRACTION      ENERGY      TEMP
                                          (SEE NOTE)     KJ/KG-MOL      K  
 FUEL        C32H66(a)                    0.9000000   -967800.000    298.150
 FUEL        stearic                      0.1000000   -912000.000    298.150
 OXIDANT     N2O(L),298.15K               1.0000000     65100.000    298.150

 O/F=    8.42860  %FUEL= 10.606028  R,EQ.RATIO= 1.106151  PHI,EQ.RATIO= 1.106541

                 CHAMBER   THROAT     EXIT
 Pinf/P            1.0000   1.7356   22.801
 P, BAR            20.000   11.524  0.87715
 T, K             3195.84  3019.03  2226.75
 RHO, KG/CU M    2.0171 0 1.2448 0 1.3346-1
 H, KJ/KG         1083.34   555.06 -1478.59
 U, KJ/KG          91.838  -370.68 -2135.82
 G, KJ/KG        -30532.6 -29311.7 -23507.5
 S, KJ/(KG)(K)     9.8928   9.8928   9.8928

 M, (1/n)          26.800   27.115   28.170
 (dLV/dLP)t      -1.01979 -1.01651 -1.00144
 (dLV/dLT)p        1.4032   1.3585   1.0438
 Cp, KJ/(KG)(K)    4.2093   4.0332   1.9519
 GAMMAs            1.1433   1.1413   1.1952
 SON VEL,M/SEC     1064.7   1027.9    886.3
 MACH NUMBER        0.000    1.000    2.554

 PERFORMANCE PARAMETERS

 Ae/At                     1.00000   4.2353
 CSTAR, M/SEC               1563.1   1563.1
 CF                         0.6576   1.4481
 Ivac, M/SEC                1928.5   2553.9
 Isp, M/SEC                 1027.9   2263.6


 MOLE FRACTIONS

 *CO              0.10290  0.09253  0.05124
 *CO2             0.09664  0.10936  0.15851
 *H               0.00932  0.00693  0.00077
 HO2              0.00003  0.00002  0.00000
 *H2              0.02245  0.01971  0.01218
 H2O              0.16404  0.17333  0.20212
 *N               0.00001  0.00000  0.00000
 *NO              0.01460  0.01096  0.00059
 NO2              0.00001  0.00001  0.00000
 *N2              0.53701  0.54525  0.57187
 *O               0.00646  0.00439  0.00008
 *OH              0.02809  0.02224  0.00207
 *O2              0.01843  0.01526  0.00057

  * THERMODYNAMIC PROPERTIES FITTED TO 20000.K

 NOTE. WEIGHT FRACTION OF FUEL IN TOTAL FUELS AND OF OXIDANT IN TOTAL OXIDANTS










              THEORETICAL ROCKET PERFORMANCE ASSUMING EQUILIBRIUM

           COMPOSITION DURING EXPANSION FROM INFINITE AREA COMBUSTOR

 Pin =   290.1 PSIA
 CASE =                

             REACTANT                    WT FRACTION      ENERGY      TEMP
                                          (SEE NOTE)     KJ/KG-MOL      K  
 FUEL        C32H66(a)                    0.9000000   -967800.000    298.150
 FUEL        stearic                      0.1000000   -912000.000    298.150
 OXIDANT     N2O(L),298.15K               1.0000000     65100.000    298.150

 O/F=    8.57140  %FUEL= 10.447792  R,EQ.RATIO= 1.087789  PHI,EQ.RATIO= 1.088106

                 CHAMBER   THROAT     EXIT
 Pinf/P            1.0000   1.7352   22.801
 P, BAR            20.000   11.526  0.87715
 T, K             3193.97  3018.01  2245.35
 RHO, KG/CU M    2.0241 0 1.2491 0 1.3295-1
 H, KJ/KG         1089.25   562.92 -1467.96
 U, KJ/KG          101.13  -359.86 -2127.71
 G, KJ/KG        -30436.8 -29226.3 -23630.6
 S, KJ/(KG)(K)     9.8705   9.8705   9.8705

 M, (1/n)          26.876   27.193   28.297
 (dLV/dLP)t      -1.01991 -1.01672 -1.00200
 (dLV/dLT)p        1.4059   1.3632   1.0604
 Cp, KJ/(KG)(K)    4.2182   4.0559   2.0937
 GAMMAs            1.1429   1.1407   1.1846
 SON VEL,M/SEC     1062.7   1026.0    884.0
 MACH NUMBER        0.000    1.000    2.558

 PERFORMANCE PARAMETERS

 Ae/At                      1.0000   4.2621
 CSTAR, M/SEC               1560.7   1560.7
 CF                         0.6574   1.4491
 Ivac, M/SEC                1925.4   2553.2
 Isp, M/SEC                 1026.0   2261.5


 MOLE FRACTIONS

 *CO              0.09914  0.08855  0.04449
 *CO2             0.09798  0.11090  0.16307
 *H               0.00901  0.00669  0.00078
 HO2              0.00003  0.00002  0.00000
 *H2              0.02118  0.01846  0.01014
 H2O              0.16277  0.17196  0.20164
 *N               0.00001  0.00000  0.00000
 *NO              0.01527  0.01157  0.00083
 NO2              0.00001  0.00001  0.00000
 *N2              0.53919  0.54750  0.57534
 *O               0.00671  0.00462  0.00012
 *OH              0.02851  0.02271  0.00258
 *O2              0.02017  0.01701  0.00102

  * THERMODYNAMIC PROPERTIES FITTED TO 20000.K

 NOTE. WEIGHT FRACTION OF FUEL IN TOTAL FUELS AND OF OXIDANT IN TOTAL OXIDANTS










              THEORETICAL ROCKET PERFORMANCE ASSUMING EQUILIBRIUM

           COMPOSITION DURING EXPANSION FROM INFINITE AREA COMBUSTOR

 Pin =   290.1 PSIA
 CASE =                

             REACTANT                    WT FRACTION      ENERGY      TEMP
                                          (SEE NOTE)     KJ/KG-MOL      K  
 FUEL        C32H66(a)                    0.9000000   -967800.000    298.150
 FUEL        stearic                      0.1000000   -912000.000    298.150
 OXIDANT     N2O(L),298.15K               1.0000000     65100.000    298.150

 O/F=    8.71430  %FUEL= 10.294103  R,EQ.RATIO= 1.070014  PHI,EQ.RATIO= 1.070263

                 CHAMBER   THROAT     EXIT
 Pinf/P            1.0000   1.7349   22.801
 P, BAR            20.000   11.528  0.87715
 T, K             3191.64  3016.34  2259.88
 RHO, KG/CU M    2.0311 0 1.2534 0 1.3263-1
 H, KJ/KG         1094.98   570.58 -1456.48
 U, KJ/KG          110.27  -349.18 -2117.82
 G, KJ/KG        -30338.3 -29136.3 -23713.2
 S, KJ/(KG)(K)     9.8486   9.8486   9.8486

 M, (1/n)          26.949   27.267   28.411
 (dLV/dLP)t      -1.01996 -1.01685 -1.00269
 (dLV/dLT)p        1.4074   1.3663   1.0806
 Cp, KJ/(KG)(K)    4.2207   4.0688   2.2630
 GAMMAs            1.1426   1.1403   1.1741
 SON VEL,M/SEC     1060.7   1024.1    881.2
 MACH NUMBER        0.000    1.000    2.564

 PERFORMANCE PARAMETERS

 Ae/At                      1.0000   4.2841
 CSTAR, M/SEC               1558.1   1558.1
 CF                         0.6573   1.4498
 Ivac, M/SEC                1922.2   2551.7
 Isp, M/SEC                 1024.1   2259.0


 MOLE FRACTIONS

 *CO              0.09553  0.08475  0.03826
 *CO2             0.09923  0.11231  0.16706
 *H               0.00870  0.00644  0.00077
 HO2              0.00003  0.00002  0.00000
 *H2              0.02000  0.01731  0.00840
 H2O              0.16148  0.17056  0.20082
 *N               0.00001  0.00000  0.00000
 *NO              0.01592  0.01217  0.00113
 NO2              0.00001  0.00001  0.00000
 *N2              0.54129  0.54966  0.57851
 *O               0.00696  0.00483  0.00017
 *OH              0.02888  0.02311  0.00311
 *O2              0.02195  0.01881  0.00175

  * THERMODYNAMIC PROPERTIES FITTED TO 20000.K

 NOTE. WEIGHT FRACTION OF FUEL IN TOTAL FUELS AND OF OXIDANT IN TOTAL OXIDANTS










              THEORETICAL ROCKET PERFORMANCE ASSUMING EQUILIBRIUM

           COMPOSITION DURING EXPANSION FROM INFINITE AREA COMBUSTOR

 Pin =   290.1 PSIA
 CASE =                

             REACTANT                    WT FRACTION      ENERGY      TEMP
                                          (SEE NOTE)     KJ/KG-MOL      K  
 FUEL        C32H66(a)                    0.9000000   -967800.000    298.150
 FUEL        stearic                      0.1000000   -912000.000    298.150
 OXIDANT     N2O(L),298.15K               1.0000000     65100.000    298.150

 O/F=    8.85710  %FUEL= 10.144972  R,EQ.RATIO= 1.052823  PHI,EQ.RATIO= 1.053007

                 CHAMBER   THROAT     EXIT
 Pinf/P            1.0000   1.7347   22.801
 P, BAR            20.000   11.529  0.87715
 T, K             3188.90  3014.12  2269.79
 RHO, KG/CU M    2.0381 0 1.2577 0 1.3252-1
 H, KJ/KG         1100.55   578.04 -1444.24
 U, KJ/KG          119.25  -338.66 -2106.14
 G, KJ/KG        -30237.8 -29042.6 -23750.1
 S, KJ/(KG)(K)     9.8273   9.8273   9.8273

 M, (1/n)          27.019   27.338   28.512
 (dLV/dLP)t      -1.01997 -1.01692 -1.00340
 (dLV/dLT)p        1.4079   1.3679   1.1011
 Cp, KJ/(KG)(K)    4.2175   4.0730   2.4330
 GAMMAs            1.1424   1.1400   1.1654
 SON VEL,M/SEC     1058.8   1022.3    878.3
 MACH NUMBER        0.000    1.000    2.569

 PERFORMANCE PARAMETERS

 Ae/At                      1.0000   4.3004
 CSTAR, M/SEC               1555.6   1555.6
 CF                         0.6572   1.4503
 Ivac, M/SEC                1919.0   2549.4
 Isp, M/SEC                 1022.3   2256.0


 MOLE FRACTIONS

 *CO              0.09206  0.08112  0.03271
 *CO2             0.10038  0.11359  0.17036
 *H               0.00840  0.00620  0.00074
 HO2              0.00003  0.00002  0.00000
 *H2              0.01891  0.01626  0.00697
 H2O              0.16018  0.16915  0.19969
 *N               0.00001  0.00000  0.00000
 *NO              0.01655  0.01275  0.00147
 NO2              0.00001  0.00001  0.00000
 *N2              0.54333  0.55175  0.58136
 *O               0.00718  0.00503  0.00024
 *OH              0.02919  0.02346  0.00363
 *O2              0.02377  0.02067  0.00283

  * THERMODYNAMIC PROPERTIES FITTED TO 20000.K

 NOTE. WEIGHT FRACTION OF FUEL IN TOTAL FUELS AND OF OXIDANT IN TOTAL OXIDANTS










              THEORETICAL ROCKET PERFORMANCE ASSUMING EQUILIBRIUM

           COMPOSITION DURING EXPANSION FROM INFINITE AREA COMBUSTOR

 Pin =   290.1 PSIA
 CASE =                

             REACTANT                    WT FRACTION      ENERGY      TEMP
                                          (SEE NOTE)     KJ/KG-MOL      K  
 FUEL        C32H66(a)                    0.9000000   -967800.000    298.150
 FUEL        stearic                      0.1000000   -912000.000    298.150
 OXIDANT     N2O(L),298.15K               1.0000000     65100.000    298.150

 O/F=    9.00000  %FUEL= 10.000000  R,EQ.RATIO= 1.036164  PHI,EQ.RATIO= 1.036288

                 CHAMBER   THROAT     EXIT
 Pinf/P            1.0000   1.7346   22.801
 P, BAR            20.000   11.530  0.87715
 T, K             3185.80  3011.38  2275.09
 RHO, KG/CU M    2.0452 0 1.2621 0 1.3262-1
 H, KJ/KG         1105.96   585.31 -1431.36
 U, KJ/KG          128.06  -328.28 -2092.78
 G, KJ/KG        -30135.5 -28945.7 -23742.0
 S, KJ/(KG)(K)     9.8065   9.8065   9.8065

 M, (1/n)          27.087   27.406   28.599
 (dLV/dLP)t      -1.01993 -1.01692 -1.00399
 (dLV/dLT)p        1.4075   1.3683   1.1178
 Cp, KJ/(KG)(K)    4.2090   4.0693   2.5685
 GAMMAs            1.1423   1.1398   1.1593
 SON VEL,M/SEC     1056.9   1020.4    875.7
 MACH NUMBER        0.000    1.000    2.572

 PERFORMANCE PARAMETERS

 Ae/At                      1.0000   4.3109
 CSTAR, M/SEC               1553.0   1553.0
 CF                         0.6571   1.4506
 Ivac, M/SEC                1915.7   2546.3
 Isp, M/SEC                 1020.4   2252.7


 MOLE FRACTIONS

 *CO              0.08872  0.07765  0.02788
 *CO2             0.10144  0.11476  0.17290
 *H               0.00810  0.00596  0.00069
 HNO              0.00001  0.00000  0.00000
 HO2              0.00003  0.00002  0.00000
 *H2              0.01790  0.01528  0.00579
 H2O              0.15887  0.16773  0.19830
 *N               0.00001  0.00000  0.00000
 *NO              0.01715  0.01330  0.00184
 NO2              0.00001  0.00001  0.00000
 *N2              0.54530  0.55376  0.58390
 *O               0.00738  0.00521  0.00030
 *OH              0.02945  0.02374  0.00410
 *O2              0.02562  0.02257  0.00430

  * THERMODYNAMIC PROPERTIES FITTED TO 20000.K

 NOTE. WEIGHT FRACTION OF FUEL IN TOTAL FUELS AND OF OXIDANT IN TOTAL OXIDANTS










              THEORETICAL ROCKET PERFORMANCE ASSUMING EQUILIBRIUM

           COMPOSITION DURING EXPANSION FROM INFINITE AREA COMBUSTOR

 Pin =   290.1 PSIA
 CASE =                

             REACTANT                    WT FRACTION      ENERGY      TEMP
                                          (SEE NOTE)     KJ/KG-MOL      K  
 FUEL        C32H66(a)                    0.9000000   -967800.000    298.150
 FUEL        stearic                      0.1000000   -912000.000    298.150
 OXIDANT     N2O(L),298.15K               1.0000000     65100.000    298.150

 O/F=    9.14290  %FUEL=  9.859113  R,EQ.RATIO= 1.020023  PHI,EQ.RATIO= 1.020091

                 CHAMBER   THROAT     EXIT
 Pinf/P            1.0000   1.7345   22.801
 P, BAR            20.000   11.530  0.87715
 T, K             3182.38  3008.21  2276.26
 RHO, KG/CU M    2.0523 0 1.2664 0 1.3289-1
 H, KJ/KG         1111.21   592.39 -1417.96
 U, KJ/KG          136.71  -318.06 -2078.01
 G, KJ/KG        -30031.8 -28846.1 -23693.6
 S, KJ/(KG)(K)     9.7861   9.7861   9.7861

 M, (1/n)          27.152   27.472   28.674
 (dLV/dLP)t      -1.01985 -1.01687 -1.00433
 (dLV/dLT)p        1.4063   1.3675   1.1276
 Cp, KJ/(KG)(K)    4.1961   4.0589   2.6454
 GAMMAs            1.1422   1.1397   1.1561
 SON VEL,M/SEC     1055.0   1018.6    873.6
 MACH NUMBER        0.000    1.000    2.575

 PERFORMANCE PARAMETERS

 Ae/At                      1.0000   4.3162
 CSTAR, M/SEC               1550.3   1550.3
 CF                         0.6571   1.4507
 Ivac, M/SEC                1912.4   2542.6
 Isp, M/SEC                 1018.6   2249.1


 MOLE FRACTIONS

 *CO              0.08551  0.07433  0.02375
 *CO2             0.10242  0.11582  0.17472
 *H               0.00781  0.00573  0.00064
 HNO              0.00001  0.00000  0.00000
 HO2              0.00003  0.00002  0.00000
 *H2              0.01696  0.01439  0.00484
 H2O              0.15756  0.16630  0.19671
 *N               0.00001  0.00000  0.00000
 *NO              0.01774  0.01384  0.00220
 NO2              0.00001  0.00001  0.00000
 *N2              0.54721  0.55571  0.58615
 *O               0.00757  0.00537  0.00036
 *OH              0.02966  0.02397  0.00448
 *O2              0.02749  0.02452  0.00615

  * THERMODYNAMIC PROPERTIES FITTED TO 20000.K

 NOTE. WEIGHT FRACTION OF FUEL IN TOTAL FUELS AND OF OXIDANT IN TOTAL OXIDANTS










              THEORETICAL ROCKET PERFORMANCE ASSUMING EQUILIBRIUM

           COMPOSITION DURING EXPANSION FROM INFINITE AREA COMBUSTOR

 Pin =   290.1 PSIA
 CASE =                

             REACTANT                    WT FRACTION      ENERGY      TEMP
                                          (SEE NOTE)     KJ/KG-MOL      K  
 FUEL        C32H66(a)                    0.9000000   -967800.000    298.150
 FUEL        stearic                      0.1000000   -912000.000    298.150
 OXIDANT     N2O(L),298.15K               1.0000000     65100.000    298.150

 O/F=    9.28570  %FUEL=  9.722236  R,EQ.RATIO= 1.004389  PHI,EQ.RATIO= 1.004404

                 CHAMBER   THROAT     EXIT
 Pinf/P            1.0000   1.7345   22.801
 P, BAR            20.000   11.530  0.87715
 T, K             3178.67  3004.63  2273.98
 RHO, KG/CU M    2.0595 0 1.2708 0 1.3332-1
 H, KJ/KG         1116.32   599.30 -1404.18
 U, KJ/KG          145.20  -308.01 -2062.11
 G, KJ/KG        -29927.1 -28744.4 -23612.2
 S, KJ/(KG)(K)     9.7662   9.7662   9.7662

 M, (1/n)          27.215   27.534   28.737
 (dLV/dLP)t      -1.01973 -1.01677 -1.00442
 (dLV/dLT)p        1.4043   1.3657   1.1302
 Cp, KJ/(KG)(K)    4.1792   4.0424   2.6624
 GAMMAs            1.1421   1.1397   1.1552
 SON VEL,M/SEC     1053.2   1016.9    871.8
 MACH NUMBER        0.000    1.000    2.575

 PERFORMANCE PARAMETERS

 Ae/At                      1.0000   4.3172
 CSTAR, M/SEC               1547.6   1547.6
 CF                         0.6570   1.4507
 Ivac, M/SEC                1909.1   2538.3
 Isp, M/SEC                 1016.9   2245.2


 MOLE FRACTIONS

 *CO              0.08243  0.07116  0.02025
 *CO2             0.10332  0.11677  0.17590
 *H               0.00753  0.00550  0.00058
 HNO              0.00001  0.00000  0.00000
 HO2              0.00004  0.00002  0.00000
 *H2              0.01609  0.01356  0.00407
 H2O              0.15624  0.16488  0.19498
 *N               0.00001  0.00000  0.00000
 *NO              0.01830  0.01435  0.00256
 NO2              0.00002  0.00001  0.00000
 *N2              0.54906  0.55759  0.58817
 *O               0.00774  0.00551  0.00041
 *OH              0.02982  0.02415  0.00477
 *O2              0.02940  0.02650  0.00832

  * THERMODYNAMIC PROPERTIES FITTED TO 20000.K

 NOTE. WEIGHT FRACTION OF FUEL IN TOTAL FUELS AND OF OXIDANT IN TOTAL OXIDANTS










              THEORETICAL ROCKET PERFORMANCE ASSUMING EQUILIBRIUM

           COMPOSITION DURING EXPANSION FROM INFINITE AREA COMBUSTOR

 Pin =   290.1 PSIA
 CASE =                

             REACTANT                    WT FRACTION      ENERGY      TEMP
                                          (SEE NOTE)     KJ/KG-MOL      K  
 FUEL        C32H66(a)                    0.9000000   -967800.000    298.150
 FUEL        stearic                      0.1000000   -912000.000    298.150
 OXIDANT     N2O(L),298.15K               1.0000000     65100.000    298.150

 O/F=    9.42860  %FUEL=  9.589015  R,EQ.RATIO= 0.989216  PHI,EQ.RATIO= 0.989181

                 CHAMBER   THROAT     EXIT
 Pinf/P            1.0000   1.7346   22.801
 P, BAR            20.000   11.530  0.87715
 T, K             3174.71  3000.70  2268.94
 RHO, KG/CU M    2.0666 0 1.2752 0 1.3387-1
 H, KJ/KG         1121.29   606.05 -1390.10
 U, KJ/KG          153.53  -298.11 -2045.33
 G, KJ/KG        -29821.5 -28640.8 -23504.7
 S, KJ/(KG)(K)     9.7467   9.7467   9.7467

 M, (1/n)          27.275   27.594   28.791
 (dLV/dLP)t      -1.01958 -1.01663 -1.00431
 (dLV/dLT)p        1.4017   1.3630   1.1270
 Cp, KJ/(KG)(K)    4.1589   4.0208   2.6328
 GAMMAs            1.1421   1.1397   1.1561
 SON VEL,M/SEC     1051.3   1015.1    870.4
 MACH NUMBER        0.000    1.000    2.575

 PERFORMANCE PARAMETERS

 Ae/At                      1.0000   4.3149
 CSTAR, M/SEC               1544.9   1544.9
 CF                         0.6571   1.4506
 Ivac, M/SEC                1905.8   2533.5
 Isp, M/SEC                 1015.1   2241.2


 MOLE FRACTIONS

 *CO              0.07947  0.06813  0.01729
 *CO2             0.10414  0.11763  0.17653
 *H               0.00726  0.00528  0.00052
 HNO              0.00001  0.00000  0.00000
 HO2              0.00004  0.00002  0.00000
 *H2              0.01527  0.01279  0.00344
 H2O              0.15493  0.16346  0.19315
 *N               0.00001  0.00000  0.00000
 *NO              0.01884  0.01483  0.00288
 NO2              0.00002  0.00001  0.00000
 *N2              0.55085  0.55941  0.58999
 *O               0.00789  0.00564  0.00046
 *OH              0.02994  0.02428  0.00497
 *O2              0.03132  0.02851  0.01078

  * THERMODYNAMIC PROPERTIES FITTED TO 20000.K

 NOTE. WEIGHT FRACTION OF FUEL IN TOTAL FUELS AND OF OXIDANT IN TOTAL OXIDANTS










              THEORETICAL ROCKET PERFORMANCE ASSUMING EQUILIBRIUM

           COMPOSITION DURING EXPANSION FROM INFINITE AREA COMBUSTOR

 Pin =   290.1 PSIA
 CASE =                

             REACTANT                    WT FRACTION      ENERGY      TEMP
                                          (SEE NOTE)     KJ/KG-MOL      K  
 FUEL        C32H66(a)                    0.9000000   -967800.000    298.150
 FUEL        stearic                      0.1000000   -912000.000    298.150
 OXIDANT     N2O(L),298.15K               1.0000000     65100.000    298.150

 O/F=    9.57140  %FUEL=  9.459485  R,EQ.RATIO= 0.974505  PHI,EQ.RATIO= 0.974423

                 CHAMBER   THROAT     EXIT
 Pinf/P            1.0000   1.7347   22.801
 P, BAR            20.000   11.530  0.87715
 T, K             3170.51  2996.46  2261.76
 RHO, KG/CU M    2.0738 0 1.2797 0 1.3451-1
 H, KJ/KG         1126.13   612.62 -1375.82
 U, KJ/KG          161.70  -288.38 -2027.93
 G, KJ/KG        -29715.4 -28535.8 -23377.4
 S, KJ/(KG)(K)     9.7276   9.7276   9.7276

 M, (1/n)          27.334   27.651   28.838
 (dLV/dLP)t      -1.01940 -1.01645 -1.00407
 (dLV/dLT)p        1.3986   1.3596   1.1202
 Cp, KJ/(KG)(K)    4.1355   3.9948   2.5736
 GAMMAs            1.1422   1.1399   1.1581
 SON VEL,M/SEC     1049.5   1013.4    869.0
 MACH NUMBER        0.000    1.000    2.574

 PERFORMANCE PARAMETERS

 Ae/At                      1.0000   4.3099
 CSTAR, M/SEC               1542.2   1542.2
 CF                         0.6571   1.4504
 Ivac, M/SEC                1902.5   2528.5
 Isp, M/SEC                 1013.4   2236.9


 MOLE FRACTIONS

 *CO              0.07662  0.06523  0.01479
 *CO2             0.10490  0.11840  0.17672
 *H               0.00699  0.00506  0.00046
 HNO              0.00001  0.00000  0.00000
 HO2              0.00004  0.00002  0.00000
 *H2              0.01451  0.01207  0.00292
 H2O              0.15363  0.16204  0.19126
 *N               0.00001  0.00000  0.00000
 *NO              0.01935  0.01530  0.00317
 NO2              0.00002  0.00001  0.00000
 *N2              0.55259  0.56117  0.59164
 *O               0.00803  0.00575  0.00049
 *OH              0.03003  0.02438  0.00509
 *O2              0.03326  0.03054  0.01345

  * THERMODYNAMIC PROPERTIES FITTED TO 20000.K

 NOTE. WEIGHT FRACTION OF FUEL IN TOTAL FUELS AND OF OXIDANT IN TOTAL OXIDANTS










              THEORETICAL ROCKET PERFORMANCE ASSUMING EQUILIBRIUM

           COMPOSITION DURING EXPANSION FROM INFINITE AREA COMBUSTOR

 Pin =   290.1 PSIA
 CASE =                

             REACTANT                    WT FRACTION      ENERGY      TEMP
                                          (SEE NOTE)     KJ/KG-MOL      K  
 FUEL        C32H66(a)                    0.9000000   -967800.000    298.150
 FUEL        stearic                      0.1000000   -912000.000    298.150
 OXIDANT     N2O(L),298.15K               1.0000000     65100.000    298.150

 O/F=    9.71430  %FUEL=  9.333321  R,EQ.RATIO= 0.960216  PHI,EQ.RATIO= 0.960089

                 CHAMBER   THROAT     EXIT
 Pinf/P            1.0000   1.7348   22.801
 P, BAR            20.000   11.529  0.87715
 T, K             3166.11  2991.93  2252.92
 RHO, KG/CU M    2.0809 0 1.2841 0 1.3523-1
 H, KJ/KG         1130.83   619.05 -1361.40
 U, KJ/KG          169.72  -278.80 -2010.06
 G, KJ/KG        -29608.8 -28429.5 -23235.0
 S, KJ/(KG)(K)     9.7090   9.7090   9.7090

 M, (1/n)          27.390   27.707   28.878
 (dLV/dLP)t      -1.01920 -1.01624 -1.00376
 (dLV/dLT)p        1.3950   1.3555   1.1115
 Cp, KJ/(KG)(K)    4.1095   3.9650   2.4989
 GAMMAs            1.1423   1.1400   1.1609
 SON VEL,M/SEC     1047.8   1011.7    867.8
 MACH NUMBER        0.000    1.000    2.573

 PERFORMANCE PARAMETERS

 Ae/At                     1.00000   4.3031
 CSTAR, M/SEC               1539.5   1539.5
 CF                         0.6572   1.4502
 Ivac, M/SEC                1899.2   2523.1
 Isp, M/SEC                 1011.7   2232.6


 MOLE FRACTIONS

 *CO              0.07389  0.06246  0.01267
 *CO2             0.10558  0.11908  0.17655
 *H               0.00674  0.00485  0.00040
 HNO              0.00001  0.00000  0.00000
 HO2              0.00004  0.00002  0.00000
 *H2              0.01380  0.01141  0.00249
 H2O              0.15234  0.16064  0.18933
 *N               0.00001  0.00000  0.00000
 *NO              0.01985  0.01574  0.00343
 NO2              0.00002  0.00001  0.00000
 *N2              0.55429  0.56288  0.59317
 *O               0.00815  0.00585  0.00051
 *OH              0.03008  0.02443  0.00514
 *O2              0.03522  0.03260  0.01629

  * THERMODYNAMIC PROPERTIES FITTED TO 20000.K

 NOTE. WEIGHT FRACTION OF FUEL IN TOTAL FUELS AND OF OXIDANT IN TOTAL OXIDANTS










              THEORETICAL ROCKET PERFORMANCE ASSUMING EQUILIBRIUM

           COMPOSITION DURING EXPANSION FROM INFINITE AREA COMBUSTOR

 Pin =   290.1 PSIA
 CASE =                

             REACTANT                    WT FRACTION      ENERGY      TEMP
                                          (SEE NOTE)     KJ/KG-MOL      K  
 FUEL        C32H66(a)                    0.9000000   -967800.000    298.150
 FUEL        stearic                      0.1000000   -912000.000    298.150
 OXIDANT     N2O(L),298.15K               1.0000000     65100.000    298.150

 O/F=    9.85710  %FUEL=  9.210563  R,EQ.RATIO= 0.946348  PHI,EQ.RATIO= 0.946180

                 CHAMBER   THROAT     EXIT
 Pinf/P            1.0000   1.7349   22.801
 P, BAR            20.000   11.528  0.87715
 T, K             3161.52  2987.15  2242.81
 RHO, KG/CU M    2.0881 0 1.2885 0 1.3600-1
 H, KJ/KG         1135.42   625.32 -1346.90
 U, KJ/KG          177.59  -269.38 -1991.88
 G, KJ/KG        -29502.1 -28322.4 -23081.5
 S, KJ/(KG)(K)     9.6908   9.6908   9.6908

 M, (1/n)          27.444   27.760   28.913
 (dLV/dLP)t      -1.01898 -1.01600 -1.00343
 (dLV/dLT)p        1.3910   1.3509   1.1020
 Cp, KJ/(KG)(K)    4.0813   3.9319   2.4186
 GAMMAs            1.1424   1.1403   1.1641
 SON VEL,M/SEC     1046.0   1010.0    866.5
 MACH NUMBER        0.000    1.000    2.571

 PERFORMANCE PARAMETERS

[...]
 S, KJ/(KG)(K)     9.5734   9.5734   9.5734

 M, (1/n)          27.775   28.079   29.063
 (dLV/dLP)t      -1.01703 -1.01391 -1.00157
 (dLV/dLT)p        1.3550   1.3090   1.0488
 Cp, KJ/(KG)(K)    3.8446   3.6478   1.9593
 GAMMAs            1.1441   1.1431   1.1891
 SON VEL,M/SEC     1034.6    999.0    856.1
 MACH NUMBER        0.000    1.000    2.565

 PERFORMANCE PARAMETERS

 Ae/At                      1.0000   4.2174
 CSTAR, M/SEC               1517.8   1517.8
 CF                         0.6582   1.4466
 Ivac, M/SEC                1872.9   2476.4
 Isp, M/SEC                  999.0   2195.7


 MOLE FRACTIONS

 *CO              0.05541  0.04421  0.00386
 *CO2             0.10904  0.12204  0.16822
 *H               0.00498  0.00342  0.00013
 HO2              0.00005  0.00003  0.00000
 *H2              0.00946  0.00745  0.00078
 H2O              0.14240  0.14989  0.17402
 *N               0.00001  0.00000  0.00000
 *NO              0.02311  0.01857  0.00442
 NO2              0.00003  0.00002  0.00000
 *N2              0.56627  0.57486  0.60243
 N2O              0.00001  0.00000  0.00000
 *O               0.00865  0.00619  0.00044
 *OH              0.02950  0.02383  0.00421
 *O2              0.05109  0.04947  0.04148

  * THERMODYNAMIC PROPERTIES FITTED TO 20000.K

 NOTE. WEIGHT FRACTION OF FUEL IN TOTAL FUELS AND OF OXIDANT IN TOTAL OXIDANTS










              THEORETICAL ROCKET PERFORMANCE ASSUMING EQUILIBRIUM

           COMPOSITION DURING EXPANSION FROM INFINITE AREA COMBUSTOR

 Pin =   290.1 PSIA
 CASE =                

             REACTANT                    WT FRACTION      ENERGY      TEMP
                                          (SEE NOTE)     KJ/KG-MOL      K  
 FUEL        C32H66(a)                    0.9000000   -967800.000    298.150
 FUEL        stearic                      0.1000000   -912000.000    298.150
 OXIDANT     N2O(L),298.15K               1.0000000     65100.000    298.150

 O/F=   11.00000  %FUEL=  8.333333  R,EQ.RATIO= 0.848299  PHI,EQ.RATIO= 0.847872

                 CHAMBER   THROAT     EXIT
 Pinf/P            1.0000   1.7371   22.801
 P, BAR            20.000   11.514  0.87715
 T, K             3120.05  2942.28  2141.11
 RHO, KG/CU M    2.1445 0 1.3233 0 1.4326-1
 H, KJ/KG         1168.15   670.65 -1231.98
 U, KJ/KG          235.55  -199.39 -1844.24
 G, KJ/KG        -28653.0 -27451.4 -21696.6
 S, KJ/(KG)(K)     9.5579   9.5579   9.5579

 M, (1/n)          27.816   28.118   29.076
 (dLV/dLP)t      -1.01672 -1.01358 -1.00140
 (dLV/dLT)p        1.3492   1.3023   1.0438
 Cp, KJ/(KG)(K)    3.8076   3.6035   1.9147
 GAMMAs            1.1444   1.1436   1.1924
 SON VEL,M/SEC     1033.1    997.5    854.4
 MACH NUMBER        0.000    1.000    2.564

 PERFORMANCE PARAMETERS

 Ae/At                      1.0000   4.2055
 CSTAR, M/SEC               1515.1   1515.1
 CF                         0.6584   1.4461
 Ivac, M/SEC                1869.7   2470.4
 Isp, M/SEC                  997.5   2191.0


 MOLE FRACTIONS

 *CO              0.05347  0.04235  0.00334
 *CO2             0.10926  0.12215  0.16677
 *H               0.00480  0.00327  0.00011
 HO2              0.00005  0.00003  0.00000
 *H2              0.00905  0.00708  0.00068
 H2O              0.14122  0.14861  0.17219
 *NO              0.02344  0.01884  0.00444
 NO2              0.00003  0.00002  0.00000
 *N2              0.56760  0.57618  0.60336
 N2O              0.00001  0.00000  0.00000
 *O               0.00866  0.00619  0.00042
 *OH              0.02934  0.02366  0.00403
 *O2              0.05307  0.05160  0.04466

  * THERMODYNAMIC PROPERTIES FITTED TO 20000.K

 NOTE. WEIGHT FRACTION OF FUEL IN TOTAL FUELS AND OF OXIDANT IN TOTAL OXIDANTS










              THEORETICAL ROCKET PERFORMANCE ASSUMING EQUILIBRIUM

           COMPOSITION DURING EXPANSION FROM INFINITE AREA COMBUSTOR

 Pin =   290.1 PSIA
 CASE =                

             REACTANT                    WT FRACTION      ENERGY      TEMP
                                          (SEE NOTE)     KJ/KG-MOL      K  
 FUEL        C32H66(a)                    0.9000000   -967800.000    298.150
 FUEL        stearic                      0.1000000   -912000.000    298.150
 OXIDANT     N2O(L),298.15K               1.0000000     65100.000    298.150

 O/F=   11.14290  %FUEL=  8.235265  R,EQ.RATIO= 0.837450  PHI,EQ.RATIO= 0.836999

                 CHAMBER   THROAT     EXIT
 Pinf/P            1.0000   1.7374   22.801
 P, BAR            20.000   11.511  0.87715
 T, K             3114.45  2936.08  2127.54
 RHO, KG/CU M    2.1515 0 1.3276 0 1.4424-1
 H, KJ/KG         1171.81   675.78 -1218.03
 U, KJ/KG          242.22  -191.27 -1826.16
 G, KJ/KG        -28548.7 -27342.6 -21520.7
 S, KJ/(KG)(K)     9.5428   9.5428   9.5428

 M, (1/n)          27.856   28.156   29.088
 (dLV/dLP)t      -1.01641 -1.01324 -1.00125
 (dLV/dLT)p        1.3433   1.2955   1.0394
 Cp, KJ/(KG)(K)    3.7704   3.5589   1.8743
 GAMMAs            1.1447   1.1442   1.1955
 SON VEL,M/SEC     1031.6    996.0    852.7
 MACH NUMBER        0.000    1.000    2.564

 PERFORMANCE PARAMETERS

 Ae/At                      1.0000   4.1935
 CSTAR, M/SEC               1512.4   1512.4
 CF                         0.6586   1.4455
 Ivac, M/SEC                1866.5   2464.4
 Isp, M/SEC                  996.0   2186.2


 MOLE FRACTIONS

 *CO              0.05161  0.04056  0.00290
 *CO2             0.10945  0.12222  0.16528
 *H               0.00462  0.00313  0.00010
 HO2              0.00005  0.00003  0.00000
 *H2              0.00866  0.00673  0.00059
 H2O              0.14005  0.14736  0.17039
 *NO              0.02375  0.01910  0.00445
 NO2              0.00003  0.00002  0.00000
 *N2              0.56889  0.57747  0.60424
 N2O              0.00001  0.00000  0.00000
 *O               0.00867  0.00618  0.00039
 *OH              0.02917  0.02348  0.00385
 *O2              0.05505  0.05372  0.04781

  * THERMODYNAMIC PROPERTIES FITTED TO 20000.K

 NOTE. WEIGHT FRACTION OF FUEL IN TOTAL FUELS AND OF OXIDANT IN TOTAL OXIDANTS










              THEORETICAL ROCKET PERFORMANCE ASSUMING EQUILIBRIUM

           COMPOSITION DURING EXPANSION FROM INFINITE AREA COMBUSTOR

 Pin =   290.1 PSIA
 CASE =                

             REACTANT                    WT FRACTION      ENERGY      TEMP
                                          (SEE NOTE)     KJ/KG-MOL      K  
 FUEL        C32H66(a)                    0.9000000   -967800.000    298.150
 FUEL        stearic                      0.1000000   -912000.000    298.150
 OXIDANT     N2O(L),298.15K               1.0000000     65100.000    298.150

 O/F=   11.28570  %FUEL=  8.139544  R,EQ.RATIO= 0.826882  PHI,EQ.RATIO= 0.826408

                 CHAMBER   THROAT     EXIT
 Pinf/P            1.0000   1.7378   22.801
 P, BAR            20.000   11.509  0.87715
 T, K             3108.79  2929.80  2114.00
 RHO, KG/CU M    2.1584 0 1.3319 0 1.4521-1
 H, KJ/KG         1175.38   680.79 -1204.21
 U, KJ/KG          248.76  -183.28 -1808.26
 G, KJ/KG        -28445.0 -27234.2 -21346.4
 S, KJ/(KG)(K)     9.5280   9.5280   9.5280

 M, (1/n)          27.895   28.192   29.098
 (dLV/dLP)t      -1.01610 -1.01291 -1.00111
 (dLV/dLT)p        1.3374   1.2887   1.0355
 Cp, KJ/(KG)(K)    3.7329   3.5143   1.8379
 GAMMAs            1.1451   1.1448   1.1985
 SON VEL,M/SEC     1030.1    994.6    850.8
 MACH NUMBER        0.000    1.000    2.564

 PERFORMANCE PARAMETERS

 Ae/At                      1.0000   4.1816
 CSTAR, M/SEC               1509.8   1509.8
 CF                         0.6587   1.4449
 Ivac, M/SEC                1863.4   2458.4
 Isp, M/SEC                  994.6   2181.6


 MOLE FRACTIONS

 *CO              0.04981  0.03886  0.00252
 *CO2             0.10959  0.12224  0.16376
 *H               0.00444  0.00299  0.00008
 HO2              0.00005  0.00003  0.00000
 *H2              0.00829  0.00640  0.00052
 H2O              0.13890  0.14612  0.16861
 *NO              0.02404  0.01933  0.00445
 NO2              0.00003  0.00002  0.00000
 *N2              0.57016  0.57872  0.60510
 N2O              0.00001  0.00000  0.00000
 *O               0.00866  0.00616  0.00037
 *OH              0.02898  0.02328  0.00367
 *O2              0.05702  0.05583  0.05092

  * THERMODYNAMIC PROPERTIES FITTED TO 20000.K

 NOTE. WEIGHT FRACTION OF FUEL IN TOTAL FUELS AND OF OXIDANT IN TOTAL OXIDANTS










              THEORETICAL ROCKET PERFORMANCE ASSUMING EQUILIBRIUM

           COMPOSITION DURING EXPANSION FROM INFINITE AREA COMBUSTOR

 Pin =   290.1 PSIA
 CASE =                

             REACTANT                    WT FRACTION      ENERGY      TEMP
                                          (SEE NOTE)     KJ/KG-MOL      K  
 FUEL        C32H66(a)                    0.9000000   -967800.000    298.150
 FUEL        stearic                      0.1000000   -912000.000    298.150
 OXIDANT     N2O(L),298.15K               1.0000000     65100.000    298.150

 O/F=   11.42860  %FUEL=  8.045959  R,EQ.RATIO= 0.816571  PHI,EQ.RATIO= 0.816075

                 CHAMBER   THROAT     EXIT
 Pinf/P            1.0000   1.7382   22.801
 P, BAR            20.000   11.506  0.87715
 T, K             3103.07  2923.42  2100.52
 RHO, KG/CU M    2.1653 0 1.3362 0 1.4619-1
 H, KJ/KG         1178.87   685.69 -1190.51
 U, KJ/KG          255.20  -175.43 -1790.51
 G, KJ/KG        -28341.8 -27126.0 -21173.6
 S, KJ/(KG)(K)     9.5134   9.5134   9.5134

 M, (1/n)          27.933   28.227   29.108
 (dLV/dLP)t      -1.01578 -1.01258 -1.00100
 (dLV/dLT)p        1.3315   1.2819   1.0320
 Cp, KJ/(KG)(K)    3.6953   3.4696   1.8049
 GAMMAs            1.1455   1.1454   1.2013
 SON VEL,M/SEC     1028.6    993.1    849.0
 MACH NUMBER        0.000    1.000    2.564

 PERFORMANCE PARAMETERS

 Ae/At                      1.0000   4.1698
 CSTAR, M/SEC               1507.2   1507.2
 CF                         0.6590   1.4444
 Ivac, M/SEC                1860.2   2452.5
 Isp, M/SEC                  993.2   2176.9


 MOLE FRACTIONS

 *CO              0.04808  0.03722  0.00219
 *CO2             0.10970  0.12222  0.16223
 *H               0.00428  0.00286  0.00007
 HO2              0.00005  0.00003  0.00000
 *H2              0.00794  0.00609  0.00046
 H2O              0.13777  0.14490  0.16685
 *NO              0.02432  0.01956  0.00443
 NO2              0.00003  0.00002  0.00000
 *N2              0.57139  0.57994  0.60592
 N2O              0.00001  0.00000  0.00000
 *O               0.00865  0.00613  0.00035
 *OH              0.02877  0.02306  0.00350
 *O2              0.05899  0.05795  0.05400

  * THERMODYNAMIC PROPERTIES FITTED TO 20000.K

 NOTE. WEIGHT FRACTION OF FUEL IN TOTAL FUELS AND OF OXIDANT IN TOTAL OXIDANTS










              THEORETICAL ROCKET PERFORMANCE ASSUMING EQUILIBRIUM

           COMPOSITION DURING EXPANSION FROM INFINITE AREA COMBUSTOR

 Pin =   290.1 PSIA
 CASE =                

             REACTANT                    WT FRACTION      ENERGY      TEMP
                                          (SEE NOTE)     KJ/KG-MOL      K  
 FUEL        C32H66(a)                    0.9000000   -967800.000    298.150
 FUEL        stearic                      0.1000000   -912000.000    298.150
 OXIDANT     N2O(L),298.15K               1.0000000     65100.000    298.150

 O/F=   11.57140  %FUEL=  7.954564  R,EQ.RATIO= 0.806521  PHI,EQ.RATIO= 0.806004

                 CHAMBER   THROAT     EXIT
 Pinf/P            1.0000   1.7386   22.801
 P, BAR            20.000   11.503  0.87715
 T, K             3097.30  2916.99  2087.14
 RHO, KG/CU M    2.1721 0 1.3404 0 1.4717-1
 H, KJ/KG         1182.28   690.52 -1176.96
 U, KJ/KG          261.52  -167.68 -1772.96
 G, KJ/KG        -28239.4 -27018.3 -21003.0
 S, KJ/(KG)(K)     9.4991   9.4991   9.4991

 M, (1/n)          27.969   28.261   29.117
 (dLV/dLP)t      -1.01547 -1.01225 -1.00089
 (dLV/dLT)p        1.3255   1.2752   1.0289
 Cp, KJ/(KG)(K)    3.6578   3.4252   1.7750
 GAMMAs            1.1459   1.1460   1.2040
 SON VEL,M/SEC     1027.2    991.7    847.1
 MACH NUMBER        0.000    1.000    2.564

 PERFORMANCE PARAMETERS

 Ae/At                      1.0000   4.1582
 CSTAR, M/SEC               1504.5   1504.5
 CF                         0.6592   1.4438
 Ivac, M/SEC                1857.1   2446.6
 Isp, M/SEC                  991.7   2172.2


 MOLE FRACTIONS

 *CO              0.04641  0.03565  0.00190
 *CO2             0.10978  0.12217  0.16070
 *H               0.00412  0.00273  0.00006
 HO2              0.00005  0.00003  0.00000
 *H2              0.00761  0.00580  0.00040
 H2O              0.13665  0.14370  0.16513
 *NO              0.02459  0.01976  0.00441
 NO2              0.00003  0.00002  0.00000
 *N2              0.57260  0.58113  0.60672
 N2O              0.00001  0.00000  0.00000
 *O               0.00863  0.00610  0.00032
 *OH              0.02856  0.02284  0.00332
 *O2              0.06095  0.06005  0.05703

  * THERMODYNAMIC PROPERTIES FITTED TO 20000.K

 NOTE. WEIGHT FRACTION OF FUEL IN TOTAL FUELS AND OF OXIDANT IN TOTAL OXIDANTS










              THEORETICAL ROCKET PERFORMANCE ASSUMING EQUILIBRIUM

           COMPOSITION DURING EXPANSION FROM INFINITE AREA COMBUSTOR

 Pin =   290.1 PSIA
 CASE =                

             REACTANT                    WT FRACTION      ENERGY      TEMP
                                          (SEE NOTE)     KJ/KG-MOL      K  
 FUEL        C32H66(a)                    0.9000000   -967800.000    298.150
 FUEL        stearic                      0.1000000   -912000.000    298.150
 OXIDANT     N2O(L),298.15K               1.0000000     65100.000    298.150

 O/F=   11.71430  %FUEL=  7.865160  R,EQ.RATIO= 0.796708  PHI,EQ.RATIO= 0.796171

                 CHAMBER   THROAT     EXIT
 Pinf/P            1.0000   1.7390   22.801
 P, BAR            20.000   11.501  0.87715
 T, K             3091.49  2910.48  2073.86
 RHO, KG/CU M    2.1789 0 1.3446 0 1.4816-1
 H, KJ/KG         1185.62   695.24 -1163.55
 U, KJ/KG          267.74  -160.06 -1755.60
 G, KJ/KG        -28137.5 -26911.0 -20834.3
 S, KJ/(KG)(K)     9.4851   9.4851   9.4851

 M, (1/n)          28.004   28.293   29.124
 (dLV/dLP)t      -1.01515 -1.01192 -1.00080
 (dLV/dLT)p        1.3195   1.2684   1.0261
 Cp, KJ/(KG)(K)    3.6202   3.3811   1.7479
 GAMMAs            1.1463   1.1467   1.2065
 SON VEL,M/SEC     1025.8    990.3    845.2
 MACH NUMBER        0.000    1.000    2.565

 PERFORMANCE PARAMETERS

 Ae/At                      1.0000   4.1466
 CSTAR, M/SEC               1501.9   1501.9
 CF                         0.6594   1.4432
 Ivac, M/SEC                1854.0   2440.7
 Isp, M/SEC                  990.3   2167.6


 MOLE FRACTIONS

 *CO              0.04481  0.03415  0.00166
 *CO2             0.10982  0.12207  0.15916
 *H               0.00397  0.00261  0.00005
 HO2              0.00005  0.00003  0.00000
 *H2              0.00729  0.00553  0.00035
 H2O              0.13555  0.14251  0.16343
 *NO              0.02484  0.01996  0.00437
 NO2              0.00003  0.00002  0.00000
 *N2              0.57378  0.58228  0.60749
 N2O              0.00001  0.00000  0.00000
 *O               0.00861  0.00606  0.00030
 *OH              0.02834  0.02261  0.00316
 *O2              0.06290  0.06214  0.06002

  * THERMODYNAMIC PROPERTIES FITTED TO 20000.K

 NOTE. WEIGHT FRACTION OF FUEL IN TOTAL FUELS AND OF OXIDANT IN TOTAL OXIDANTS










              THEORETICAL ROCKET PERFORMANCE ASSUMING EQUILIBRIUM

           COMPOSITION DURING EXPANSION FROM INFINITE AREA COMBUSTOR

 Pin =   290.1 PSIA
 CASE =                

             REACTANT                    WT FRACTION      ENERGY      TEMP
                                          (SEE NOTE)     KJ/KG-MOL      K  
 FUEL        C32H66(a)                    0.9000000   -967800.000    298.150
 FUEL        stearic                      0.1000000   -912000.000    298.150
 OXIDANT     N2O(L),298.15K               1.0000000     65100.000    298.150

 O/F=   11.85710  %FUEL=  7.777804  R,EQ.RATIO= 0.787138  PHI,EQ.RATIO= 0.786583

                 CHAMBER   THROAT     EXIT
 Pinf/P            1.0000   1.7395   22.801
 P, BAR            20.000   11.498  0.87715
 T, K             3085.64  2903.91  2060.72
 RHO, KG/CU M    2.1857 0 1.3488 0 1.4914-1
 H, KJ/KG         1188.88   699.86 -1150.28
 U, KJ/KG          273.85  -152.56 -1738.44
 G, KJ/KG        -28036.4 -26804.2 -20668.2
 S, KJ/(KG)(K)     9.4714   9.4714   9.4714

 M, (1/n)          28.038   28.325   29.131
 (dLV/dLP)t      -1.01484 -1.01159 -1.00072
 (dLV/dLT)p        1.3135   1.2617   1.0237
 Cp, KJ/(KG)(K)    3.5828   3.3373   1.7232
 GAMMAs            1.1467   1.1474   1.2090
 SON VEL,M/SEC     1024.4    989.0    843.2
 MACH NUMBER        0.000    1.000    2.565

 PERFORMANCE PARAMETERS

 Ae/At                     1.00000   4.1353
 CSTAR, M/SEC               1499.3   1499.3
 CF                         0.6596   1.4426
 Ivac, M/SEC                1850.9   2434.9
 Isp, M/SEC                  989.0   2162.9


 MOLE FRACTIONS

 *CO              0.04326  0.03272  0.00145
 *CO2             0.10984  0.12194  0.15762
 *H               0.00382  0.00250  0.00005
 HO2              0.00005  0.00003  0.00000
 *H2              0.00699  0.00527  0.00031
 H2O              0.13446  0.14134  0.16176
 *NO              0.02507  0.02014  0.00433
 NO2              0.00003  0.00002  0.00000
 *N2              0.57493  0.58341  0.60824
 N2O              0.00001  0.00000  0.00000
 *O               0.00857  0.00602  0.00028
 *OH              0.02811  0.02237  0.00300
 *O2              0.06484  0.06423  0.06296

  * THERMODYNAMIC PROPERTIES FITTED TO 20000.K

 NOTE. WEIGHT FRACTION OF FUEL IN TOTAL FUELS AND OF OXIDANT IN TOTAL OXIDANTS










              THEORETICAL ROCKET PERFORMANCE ASSUMING EQUILIBRIUM

           COMPOSITION DURING EXPANSION FROM INFINITE AREA COMBUSTOR

 Pin =   290.1 PSIA
 CASE =                

             REACTANT                    WT FRACTION      ENERGY      TEMP
                                          (SEE NOTE)     KJ/KG-MOL      K  
 FUEL        C32H66(a)                    0.9000000   -967800.000    298.150
 FUEL        stearic                      0.1000000   -912000.000    298.150
 OXIDANT     N2O(L),298.15K               1.0000000     65100.000    298.150

 O/F=   12.00000  %FUEL=  7.692308  R,EQ.RATIO= 0.777789  PHI,EQ.RATIO= 0.777216

                 CHAMBER   THROAT     EXIT
 Pinf/P            1.0000   1.7399   22.801
 P, BAR            20.000   11.495  0.87715
 T, K             3079.75  2897.29  2047.72
 RHO, KG/CU M    2.1925 0 1.3530 0 1.5012-1
 H, KJ/KG         1192.07   704.40 -1137.16
 U, KJ/KG          279.86  -145.17 -1721.47
 G, KJ/KG        -27935.9 -26697.9 -20504.3
 S, KJ/(KG)(K)     9.4579   9.4579   9.4579

 M, (1/n)          28.071   28.355   29.138
 (dLV/dLP)t      -1.01453 -1.01127 -1.00065
 (dLV/dLT)p        1.3076   1.2551   1.0215
 Cp, KJ/(KG)(K)    3.5456   3.2939   1.7007
 GAMMAs            1.1472   1.1481   1.2113
 SON VEL,M/SEC     1023.0    987.6    841.3
 MACH NUMBER        0.000    1.000    2.566

 PERFORMANCE PARAMETERS

 Ae/At                      1.0000   4.1242
 CSTAR, M/SEC               1496.7   1496.7
 CF                         0.6598   1.4420
 Ivac, M/SEC                1847.8   2429.1
 Isp, M/SEC                  987.6   2158.3


 MOLE FRACTIONS

 *CO              0.04177  0.03134  0.00126
 *CO2             0.10982  0.12178  0.15609
 *H               0.00368  0.00239  0.00004
 HO2              0.00005  0.00003  0.00000
 *H2              0.00671  0.00502  0.00027
 H2O              0.13339  0.14019  0.16012
 *NO              0.02530  0.02030  0.00429
 NO2              0.00004  0.00002  0.00000
 *N2              0.57605  0.58452  0.60896
 N2O              0.00001  0.00000  0.00000
 *O               0.00854  0.00597  0.00026
 *OH              0.02787  0.02212  0.00284
 *O2              0.06677  0.06630  0.06586

  * THERMODYNAMIC PROPERTIES FITTED TO 20000.K

 NOTE. WEIGHT FRACTION OF FUEL IN TOTAL FUELS AND OF OXIDANT IN TOTAL OXIDANTS



