
 *******************************************************************************

         NASA-GLENN CHEMICAL EQUILIBRIUM PROGRAM CEA2, MAY 21, 2004
                   BY  BONNIE MCBRIDE AND SANFORD GORDON
      REFS: NASA RP-1311, PART I, 1994 AND NASA RP-1311, PART II, 1996

 *******************************************************************************



 problem
 o/f=5.0000,5.1429,5.2857,5.4286,5.5714,
 5.7143,5.8571,6.0000,6.1429,6.2857,
 6.4286,6.5714,6.7143,6.8571,7.0000,
 7.1429,7.2857,7.4286,7.5714,7.7143,
 7.8571,8.0000,8.1429,8.2857,8.4286,
 8.5714,8.7143,8.8571,9.0000,9.1429,
 9.2857,9.4286,9.5714,9.7143,9.8571,
 10.0000,10.1429,10.2857,10.4286,10.5714,
 10.7143,10.8571,11.0000,11.1429,11.2857,
 11.4286,11.5714,11.7143,11.8571,12.0000,
     rocket  eql
   p,bar=40.0000,
   pi/p=45.6019,
 react
   fuel=C32H66(a) wt=0.900 t,k=298.150
   fuel=stearic wt=0.100 t,k=298.150
   h,kj/mol=-912.000 C 18 H 36 O 2
   oxid=N2O(L),298.15K wt=1.000 t,k=298.150
 output siunits short
 end





              THEORETICAL ROCKET PERFORMANCE ASSUMING EQUILIBRIUM

           COMPOSITION DURING EXPANSION FROM INFINITE AREA COMBUSTOR

 Pin =   580.2 PSIA
 CASE =                

             REACTANT                    WT FRACTION      ENERGY      TEMP
                                          (SEE NOTE)     KJ/KG-MOL      K  
 FUEL        C32H66(a)                    0.9000000   -967800.000    298.150
 FUEL        stearic                      0.1000000   -912000.000    298.150
 OXIDANT     N2O(L),298.15K               1.0000000     65100.000    298.150

 O/F=    5.00000  %FUEL= 16.666667  R,EQ.RATIO= 1.859996  PHI,EQ.RATIO= 1.865318

                 CHAMBER   THROAT     EXIT
 Pinf/P            1.0000   1.8010   45.602
 P, BAR            40.000   22.210  0.87716
 T, K             2815.27  2517.93  1276.42
 RHO, KG/CU M    3.9911 0 2.4830 0 1.9371-1
 H, KJ/KG          857.18   299.57 -1806.78
 U, KJ/KG         -145.05  -594.92 -2259.60
 G, KJ/KG        -28356.0 -25828.2 -15051.7
 S, KJ/(KG)(K)    10.3767  10.3767  10.3767

 M, (1/n)          23.355   23.405   23.437
 (dLV/dLP)t      -1.00178 -1.00070 -1.00001
 (dLV/dLT)p        1.0370   1.0158   1.0001
 Cp, KJ/(KG)(K)    2.0130   1.8453   1.6453
 GAMMAs            1.2321   1.2468   1.2749
 SON VEL,M/SEC     1111.3   1056.0    759.8
 MACH NUMBER        0.000    1.000    3.038

 PERFORMANCE PARAMETERS

 Ae/At                     1.00000   5.8645
 CSTAR, M/SEC               1525.5   1525.5
 CF                         0.6923   1.5131
 Ivac, M/SEC                1903.1   2504.4
 Isp, M/SEC                 1056.0   2308.2


 MOLE FRACTIONS

 *CO              0.24004  0.23806  0.20440
 *CO2             0.03322  0.03579  0.06983
 *H               0.00513  0.00220  0.00000
 *H2              0.14105  0.14458  0.17957
 H2O              0.13663  0.13571  0.10244
 NH3              0.00001  0.00001  0.00001
 *NO              0.00022  0.00005  0.00000
 *N2              0.44209  0.44312  0.44375
 *O               0.00003  0.00000  0.00000
 *OH              0.00154  0.00048  0.00000
 *O2              0.00001  0.00000  0.00000

  * THERMODYNAMIC PROPERTIES FITTED TO 20000.K

 NOTE. WEIGHT FRACTION OF FUEL IN TOTAL FUELS AND OF OXIDANT IN TOTAL OXIDANTS










              THEORETICAL ROCKET PERFORMANCE ASSUMING EQUILIBRIUM

           COMPOSITION DURING EXPANSION FROM INFINITE AREA COMBUSTOR

 Pin =   580.2 PSIA
 CASE =                

             REACTANT                    WT FRACTION      ENERGY      TEMP
                                          (SEE NOTE)     KJ/KG-MOL      K  
 FUEL        C32H66(a)                    0.9000000   -967800.000    298.150
 FUEL        stearic                      0.1000000   -912000.000    298.150
 OXIDANT     N2O(L),298.15K               1.0000000     65100.000    298.150

 O/F=    5.14290  %FUEL= 16.278956  R,EQ.RATIO= 1.808623  PHI,EQ.RATIO= 1.813489

                 CHAMBER   THROAT     EXIT
 Pinf/P            1.0000   1.7981   45.602
 P, BAR            40.000   22.246  0.87716
 T, K             2864.65  2569.03  1310.65
 RHO, KG/CU M    3.9626 0 2.4635 0 1.9072-1
 H, KJ/KG          871.65   310.91 -1823.26
 U, KJ/KG         -137.78  -592.11 -2283.17
 G, KJ/KG        -28750.7 -26254.6 -15376.2
 S, KJ/(KG)(K)    10.3407  10.3407  10.3407

 M, (1/n)          23.595   23.654   23.695
 (dLV/dLP)t      -1.00214 -1.00087 -1.00001
 (dLV/dLT)p        1.0444   1.0195   1.0001
 Cp, KJ/(KG)(K)    2.0571   1.8672   1.6370
 GAMMAs            1.2265   1.2419   1.2729
 SON VEL,M/SEC     1112.7   1059.0    765.1
 MACH NUMBER        0.000    1.000    3.034

 PERFORMANCE PARAMETERS

 Ae/At                     1.00000   5.8919
 CSTAR, M/SEC               1533.2   1533.2
 CF                         0.6907   1.5142
 Ivac, M/SEC                1911.7   2519.7
 Isp, M/SEC                 1059.0   2321.6


 MOLE FRACTIONS

 *CO              0.23350  0.23156  0.19858
 *CO2             0.03615  0.03877  0.07222
 *H               0.00584  0.00262  0.00000
 *H2              0.13012  0.13358  0.16807
 H2O              0.14323  0.14277  0.11042
 NH3              0.00001  0.00001  0.00000
 *NO              0.00032  0.00008  0.00000
 *N2              0.44866  0.44991  0.45071
 *O               0.00005  0.00001  0.00000
 *OH              0.00208  0.00069  0.00000
 *O2              0.00002  0.00000  0.00000

  * THERMODYNAMIC PROPERTIES FITTED TO 20000.K

 NOTE. WEIGHT FRACTION OF FUEL IN TOTAL FUELS AND OF OXIDANT IN TOTAL OXIDANTS










              THEORETICAL ROCKET PERFORMANCE ASSUMING EQUILIBRIUM

           COMPOSITION DURING EXPANSION FROM INFINITE AREA COMBUSTOR

 Pin =   580.2 PSIA
 CASE =                

             REACTANT                    WT FRACTION      ENERGY      TEMP
                                          (SEE NOTE)     KJ/KG-MOL      K  
 FUEL        C32H66(a)                    0.9000000   -967800.000    298.150
 FUEL        stearic                      0.1000000   -912000.000    298.150
 OXIDANT     N2O(L),298.15K               1.0000000     65100.000    298.150

 O/F=    5.28570  %FUEL= 15.909127  R,EQ.RATIO= 1.760046  PHI,EQ.RATIO= 1.764495

                 CHAMBER   THROAT     EXIT
 Pinf/P            1.0000   1.7951   45.602
 P, BAR            40.000   22.283  0.87716
 T, K             2910.80  2617.70  1344.02
 RHO, KG/CU M    3.9380 0 2.4464 0 1.8796-1
 H, KJ/KG          885.45   322.12 -1838.42
 U, KJ/KG         -130.30  -588.72 -2305.09
 G, KJ/KG        -29110.9 -26653.8 -15688.8
 S, KJ/(KG)(K)    10.3052  10.3052  10.3052

 M, (1/n)          23.827   23.896   23.946
 (dLV/dLP)t      -1.00256 -1.00107 -1.00001
 (dLV/dLT)p        1.0528   1.0239   1.0000
 Cp, KJ/(KG)(K)    2.1080   1.8935   1.6292
 GAMMAs            1.2209   1.2370   1.2709
 SON VEL,M/SEC     1113.6   1061.4    770.1
 MACH NUMBER        0.000    1.000    3.031

 PERFORMANCE PARAMETERS

 Ae/At                      1.0000   5.9191
 CSTAR, M/SEC               1540.4   1540.4
 CF                         0.6891   1.5152
 Ivac, M/SEC                1919.6   2534.0
 Isp, M/SEC                 1061.4   2334.0


 MOLE FRACTIONS

 *CO              0.22692  0.22498  0.19278
 *CO2             0.03919  0.04190  0.07467
 *H               0.00653  0.00307  0.00000
 *H2              0.11980  0.12312  0.15698
 H2O              0.14923  0.14933  0.11807
 NH3              0.00001  0.00001  0.00000
 *NO              0.00046  0.00012  0.00000
 *N2              0.45499  0.45648  0.45750
 *O               0.00008  0.00001  0.00000
 *OH              0.00273  0.00096  0.00000
 *O2              0.00004  0.00001  0.00000

  * THERMODYNAMIC PROPERTIES FITTED TO 20000.K

 NOTE. WEIGHT FRACTION OF FUEL IN TOTAL FUELS AND OF OXIDANT IN TOTAL OXIDANTS










              THEORETICAL ROCKET PERFORMANCE ASSUMING EQUILIBRIUM

           COMPOSITION DURING EXPANSION FROM INFINITE AREA COMBUSTOR

 Pin =   580.2 PSIA
 CASE =                

             REACTANT                    WT FRACTION      ENERGY      TEMP
                                          (SEE NOTE)     KJ/KG-MOL      K  
 FUEL        C32H66(a)                    0.9000000   -967800.000    298.150
 FUEL        stearic                      0.1000000   -912000.000    298.150
 OXIDANT     N2O(L),298.15K               1.0000000     65100.000    298.150

 O/F=    5.42860  %FUEL= 15.555486  R,EQ.RATIO= 1.713978  PHI,EQ.RATIO= 1.718047

                 CHAMBER   THROAT     EXIT
 Pinf/P            1.0000   1.7921   45.602
 P, BAR            40.000   22.321  0.87716
 T, K             2953.81  2664.04  1376.64
 RHO, KG/CU M    3.9169 0 2.4315 0 1.8538-1
 H, KJ/KG          898.65   333.24 -1852.37
 U, KJ/KG         -122.57  -584.74 -2325.53
 G, KJ/KG        -29437.6 -27026.9 -15990.7
 S, KJ/(KG)(K)    10.2702  10.2702  10.2702

 M, (1/n)          24.049   24.129   24.191
 (dLV/dLP)t      -1.00302 -1.00130 -1.00000
 (dLV/dLT)p        1.0623   1.0289   1.0000
 Cp, KJ/(KG)(K)    2.1665   1.9250   1.6218
 GAMMAs            1.2151   1.2319   1.2689
 SON VEL,M/SEC     1114.0   1063.4    774.9
 MACH NUMBER        0.000    1.000    3.027

 PERFORMANCE PARAMETERS

 Ae/At                     1.00000   5.9461
 CSTAR, M/SEC               1547.0   1547.0
 CF                         0.6874   1.5162
 Ivac, M/SEC                1926.6   2547.4
 Isp, M/SEC                 1063.4   2345.6


 MOLE FRACTIONS

 *CO              0.22027  0.21832  0.18697
 *CO2             0.04235  0.04518  0.07721
 *H               0.00718  0.00353  0.00000
 HCO              0.00001  0.00000  0.00000
 *H2              0.11009  0.11320  0.14630
 H2O              0.15464  0.15536  0.12539
 NH3              0.00001  0.00001  0.00000
 *NO              0.00064  0.00018  0.00000
 *N2              0.46109  0.46286  0.46413
 *O               0.00013  0.00002  0.00000
 *OH              0.00351  0.00131  0.00000
 *O2              0.00007  0.00001  0.00000

  * THERMODYNAMIC PROPERTIES FITTED TO 20000.K

 NOTE. WEIGHT FRACTION OF FUEL IN TOTAL FUELS AND OF OXIDANT IN TOTAL OXIDANTS










              THEORETICAL ROCKET PERFORMANCE ASSUMING EQUILIBRIUM

           COMPOSITION DURING EXPANSION FROM INFINITE AREA COMBUSTOR

 Pin =   580.2 PSIA
 CASE =                

             REACTANT                    WT FRACTION      ENERGY      TEMP
                                          (SEE NOTE)     KJ/KG-MOL      K  
 FUEL        C32H66(a)                    0.9000000   -967800.000    298.150
 FUEL        stearic                      0.1000000   -912000.000    298.150
 OXIDANT     N2O(L),298.15K               1.0000000     65100.000    298.150

 O/F=    5.57140  %FUEL= 15.217457  R,EQ.RATIO= 1.670289  PHI,EQ.RATIO= 1.674012

                 CHAMBER   THROAT     EXIT
 Pinf/P            1.0000   1.7889   45.602
 P, BAR            40.000   22.360  0.87716
 T, K             2993.63  2707.97  1408.50
 RHO, KG/CU M    3.8991 0 2.4187 0 1.8298-1
 H, KJ/KG          911.26   344.29 -1865.18
 U, KJ/KG         -114.60  -580.17 -2344.55
 G, KJ/KG        -29730.9 -27373.9 -16282.3
 S, KJ/(KG)(K)    10.2358  10.2358  10.2358

 M, (1/n)          24.263   24.355   24.430
 (dLV/dLP)t      -1.00355 -1.00157 -1.00000
 (dLV/dLT)p        1.0731   1.0348   1.0000
 Cp, KJ/(KG)(K)    2.2331   1.9624   1.6148
 GAMMAs            1.2094   1.2266   1.2671
 SON VEL,M/SEC     1113.9   1064.9    779.4
 MACH NUMBER        0.000    1.000    3.024

 PERFORMANCE PARAMETERS

 Ae/At                      1.0000   5.9733
 CSTAR, M/SEC               1553.0   1553.0
 CF                         0.6857   1.5173
 Ivac, M/SEC                1933.0   2559.9
 Isp, M/SEC                 1064.9   2356.5


 MOLE FRACTIONS

 *CO              0.21358  0.21158  0.18114
 *CO2             0.04562  0.04861  0.07986
 *H               0.00779  0.00400  0.00000
 HCO              0.00001  0.00000  0.00000
 *H2              0.10102  0.10385  0.13605
 H2O              0.15944  0.16086  0.13236
 NH3              0.00001  0.00000  0.00000
 *NO              0.00087  0.00027  0.00000
 *N2              0.46694  0.46902  0.47059
 *O               0.00019  0.00004  0.00000
 *OH              0.00440  0.00175  0.00000
 *O2              0.00012  0.00002  0.00000

  * THERMODYNAMIC PROPERTIES FITTED TO 20000.K

 NOTE. WEIGHT FRACTION OF FUEL IN TOTAL FUELS AND OF OXIDANT IN TOTAL OXIDANTS










              THEORETICAL ROCKET PERFORMANCE ASSUMING EQUILIBRIUM

           COMPOSITION DURING EXPANSION FROM INFINITE AREA COMBUSTOR

 Pin =   580.2 PSIA
 CASE =                

             REACTANT                    WT FRACTION      ENERGY      TEMP
                                          (SEE NOTE)     KJ/KG-MOL      K  
 FUEL        C32H66(a)                    0.9000000   -967800.000    298.150
 FUEL        stearic                      0.1000000   -912000.000    298.150
 OXIDANT     N2O(L),298.15K               1.0000000     65100.000    298.150

 O/F=    5.71430  %FUEL= 14.893585  R,EQ.RATIO= 1.628745  PHI,EQ.RATIO= 1.632149

                 CHAMBER   THROAT     EXIT
 Pinf/P            1.0000   1.7856   45.602
 P, BAR            40.000   22.401  0.87716
 T, K             3030.31  2749.55  1439.71
 RHO, KG/CU M    3.8845 0 2.4079 0 1.8072-1
 H, KJ/KG          923.35   355.32 -1876.94
 U, KJ/KG         -106.38  -575.01 -2362.29
 G, KJ/KG        -29991.7 -27695.4 -16564.8
 S, KJ/(KG)(K)    10.2019  10.2019  10.2019

 M, (1/n)          24.468   24.573   24.663
 (dLV/dLP)t      -1.00415 -1.00188 -1.00000
 (dLV/dLT)p        1.0853   1.0417   1.0000
 Cp, KJ/(KG)(K)    2.3086   2.0067   1.6082
 GAMMAs            1.2037   1.2211   1.2653
 SON VEL,M/SEC     1113.3   1065.9    783.6
 MACH NUMBER        0.000    1.000    3.020

 PERFORMANCE PARAMETERS

 Ae/At                      1.0000   6.0007
 CSTAR, M/SEC               1558.6   1558.6
 CF                         0.6839   1.5184
 Ivac, M/SEC                1938.7   2571.6
 Isp, M/SEC                 1065.9   2366.6


 MOLE FRACTIONS

 *CO              0.20684  0.20474  0.17527
 *CO2             0.04898  0.05219  0.08261
 *H               0.00834  0.00446  0.00000
 HCO              0.00001  0.00000  0.00000
 *H2              0.09258  0.09506  0.12621
 H2O              0.16363  0.16581  0.13900
 NH3              0.00001  0.00000  0.00000
 *NO              0.00116  0.00038  0.00000
 *N2              0.47255  0.47497  0.47691
 *O               0.00027  0.00006  0.00000
 *OH              0.00543  0.00228  0.00000
 *O2              0.00019  0.00004  0.00000

  * THERMODYNAMIC PROPERTIES FITTED TO 20000.K

 NOTE. WEIGHT FRACTION OF FUEL IN TOTAL FUELS AND OF OXIDANT IN TOTAL OXIDANTS










              THEORETICAL ROCKET PERFORMANCE ASSUMING EQUILIBRIUM

           COMPOSITION DURING EXPANSION FROM INFINITE AREA COMBUSTOR

 Pin =   580.2 PSIA
 CASE =                

             REACTANT                    WT FRACTION      ENERGY      TEMP
                                          (SEE NOTE)     KJ/KG-MOL      K  
 FUEL        C32H66(a)                    0.9000000   -967800.000    298.150
 FUEL        stearic                      0.1000000   -912000.000    298.150
 OXIDANT     N2O(L),298.15K               1.0000000     65100.000    298.150

 O/F=    5.85710  %FUEL= 14.583424  R,EQ.RATIO= 1.589243  PHI,EQ.RATIO= 1.592356

                 CHAMBER   THROAT     EXIT
 Pinf/P            1.0000   1.7822   45.602
 P, BAR            40.000   22.444  0.87716
 T, K             3063.82  2788.67  1470.28
 RHO, KG/CU M    3.8729 0 2.3990 0 1.7860-1
 H, KJ/KG          934.92   366.33 -1887.67
 U, KJ/KG         -97.906  -569.23 -2378.79
 G, KJ/KG        -30220.3 -27990.9 -16838.6
 S, KJ/(KG)(K)    10.1687  10.1687  10.1687

 M, (1/n)          24.664   24.783   24.891
 (dLV/dLP)t      -1.00482 -1.00225 -1.00000
 (dLV/dLT)p        1.0989   1.0497   1.0001
 Cp, KJ/(KG)(K)    2.3930   2.0588   1.6019
 GAMMAs            1.1980   1.2155   1.2635
 SON VEL,M/SEC     1112.4   1066.4    787.7
 MACH NUMBER        0.000    1.000    3.016

 PERFORMANCE PARAMETERS

 Ae/At                      1.0000   6.0286
 CSTAR, M/SEC               1563.6   1563.6
 CF                         0.6820   1.5196
 Ivac, M/SEC                1943.7   2582.7
 Isp, M/SEC                 1066.4   2376.0


 MOLE FRACTIONS

 *CO              0.20010  0.19784  0.16935
 *CO2             0.05241  0.05590  0.08549
 *H               0.00882  0.00490  0.00000
 HCO              0.00001  0.00000  0.00000
 *H2              0.08478  0.08684  0.11680
 H2O              0.16722  0.17020  0.14529
 *NO              0.00151  0.00053  0.00000
 *N2              0.47791  0.48071  0.48307
 *O               0.00038  0.00009  0.00000
 *OH              0.00656  0.00291  0.00000
 *O2              0.00030  0.00007  0.00000

  * THERMODYNAMIC PROPERTIES FITTED TO 20000.K

 NOTE. WEIGHT FRACTION OF FUEL IN TOTAL FUELS AND OF OXIDANT IN TOTAL OXIDANTS










              THEORETICAL ROCKET PERFORMANCE ASSUMING EQUILIBRIUM

           COMPOSITION DURING EXPANSION FROM INFINITE AREA COMBUSTOR

 Pin =   580.2 PSIA
 CASE =                

             REACTANT                    WT FRACTION      ENERGY      TEMP
                                          (SEE NOTE)     KJ/KG-MOL      K  
 FUEL        C32H66(a)                    0.9000000   -967800.000    298.150
 FUEL        stearic                      0.1000000   -912000.000    298.150
 OXIDANT     N2O(L),298.15K               1.0000000     65100.000    298.150

 O/F=    6.00000  %FUEL= 14.285714  R,EQ.RATIO= 1.551587  PHI,EQ.RATIO= 1.554432

                 CHAMBER   THROAT     EXIT
 Pinf/P            1.0000   1.7787   45.602
 P, BAR            40.000   22.488  0.87716
 T, K             3094.23  2825.32  1500.29
 RHO, KG/CU M    3.8640 0 2.3919 0 1.7660-1
 H, KJ/KG          946.03   377.35 -1897.45
 U, KJ/KG         -89.165  -562.83 -2394.15
 G, KJ/KG        -30417.5 -28260.5 -17104.6
 S, KJ/(KG)(K)    10.1361  10.1361  10.1361

 M, (1/n)          24.852   24.986   25.114
 (dLV/dLP)t      -1.00556 -1.00267 -1.00000
 (dLV/dLT)p        1.1139   1.0590   1.0001
 Cp, KJ/(KG)(K)    2.4864   2.1200   1.5960
 GAMMAs            1.1925   1.2097   1.2618
 SON VEL,M/SEC     1111.1   1066.5    791.7
 MACH NUMBER        0.000    1.000    3.012

 PERFORMANCE PARAMETERS

 Ae/At                      1.0000   6.0572
 CSTAR, M/SEC               1568.1   1568.1
 CF                         0.6801   1.5208
 Ivac, M/SEC                1948.1   2593.0
 Isp, M/SEC                 1066.5   2384.7


 MOLE FRACTIONS

 *CO              0.19335  0.19086  0.16336
 *CO2             0.05589  0.05973  0.08851
 *H               0.00922  0.00531  0.00001
 *H2              0.07759  0.07920  0.10780
 H2O              0.17022  0.17402  0.15123
 *NO              0.00192  0.00073  0.00000
 *N2              0.48302  0.48623  0.48909
 *O               0.00052  0.00014  0.00000
 *OH              0.00779  0.00365  0.00000
 *O2              0.00045  0.00012  0.00000

  * THERMODYNAMIC PROPERTIES FITTED TO 20000.K

 NOTE. WEIGHT FRACTION OF FUEL IN TOTAL FUELS AND OF OXIDANT IN TOTAL OXIDANTS










              THEORETICAL ROCKET PERFORMANCE ASSUMING EQUILIBRIUM

           COMPOSITION DURING EXPANSION FROM INFINITE AREA COMBUSTOR

 Pin =   580.2 PSIA
 CASE =                

             REACTANT                    WT FRACTION      ENERGY      TEMP
                                          (SEE NOTE)     KJ/KG-MOL      K  
 FUEL        C32H66(a)                    0.9000000   -967800.000    298.150
 FUEL        stearic                      0.1000000   -912000.000    298.150
 OXIDANT     N2O(L),298.15K               1.0000000     65100.000    298.150

 O/F=    6.14290  %FUEL= 13.999916  R,EQ.RATIO= 1.515674  PHI,EQ.RATIO= 1.518272

                 CHAMBER   THROAT     EXIT
 Pinf/P            1.0000   1.7751   45.602
 P, BAR            40.000   22.534  0.87716
 T, K             3121.56  2859.41  1529.77
 RHO, KG/CU M    3.8578 0 2.3867 0 1.7469-1
 H, KJ/KG          956.70   388.39 -1906.30
 U, KJ/KG         -80.168  -555.79 -2408.41
 G, KJ/KG        -30584.1 -28503.6 -17363.3
 S, KJ/(KG)(K)    10.1042  10.1042  10.1042

 M, (1/n)          25.031   25.180   25.332
 (dLV/dLP)t      -1.00637 -1.00316 -1.00000
 (dLV/dLT)p        1.1304   1.0698   1.0001
 Cp, KJ/(KG)(K)    2.5881   2.1911   1.5904
 GAMMAs            1.1871   1.2038   1.2601
 SON VEL,M/SEC     1109.5   1066.1    795.4
 MACH NUMBER        0.000    1.000    3.008

 PERFORMANCE PARAMETERS

 Ae/At                     1.00000   6.0869
 CSTAR, M/SEC               1572.0   1572.0
 CF                         0.6782   1.5222
 Ivac, M/SEC                1951.7   2602.7
 Isp, M/SEC                 1066.1   2392.9


 MOLE FRACTIONS

 *CO              0.18663  0.18383  0.15731
 *CO2             0.05938  0.06365  0.09167
 *H               0.00954  0.00569  0.00001
 *H2              0.07101  0.07213  0.09922
 H2O              0.17267  0.17728  0.15683
 *NO              0.00241  0.00097  0.00000
 *N2              0.48790  0.49153  0.49497
 *O               0.00068  0.00020  0.00000
 *OH              0.00910  0.00451  0.00000
 *O2              0.00065  0.00020  0.00000

  * THERMODYNAMIC PROPERTIES FITTED TO 20000.K

 NOTE. WEIGHT FRACTION OF FUEL IN TOTAL FUELS AND OF OXIDANT IN TOTAL OXIDANTS










              THEORETICAL ROCKET PERFORMANCE ASSUMING EQUILIBRIUM

           COMPOSITION DURING EXPANSION FROM INFINITE AREA COMBUSTOR

 Pin =   580.2 PSIA
 CASE =                

             REACTANT                    WT FRACTION      ENERGY      TEMP
                                          (SEE NOTE)     KJ/KG-MOL      K  
 FUEL        C32H66(a)                    0.9000000   -967800.000    298.150
 FUEL        stearic                      0.1000000   -912000.000    298.150
 OXIDANT     N2O(L),298.15K               1.0000000     65100.000    298.150

 O/F=    6.28570  %FUEL= 13.725517  R,EQ.RATIO= 1.481409  PHI,EQ.RATIO= 1.483779

                 CHAMBER   THROAT     EXIT
 Pinf/P            1.0000   1.7714   45.602
 P, BAR            40.000   22.581  0.87716
 T, K             3145.87  2890.83  1558.74
 RHO, KG/CU M    3.8540 0 2.3831 0 1.7288-1
 H, KJ/KG          966.94   399.43 -1914.24
 U, KJ/KG         -70.934  -548.12 -2421.61
 G, KJ/KG        -30721.1 -28719.5 -17615.3
 S, KJ/(KG)(K)    10.0729  10.0729  10.0729

 M, (1/n)          25.202   25.366   25.544
 (dLV/dLP)t      -1.00725 -1.00372 -1.00000
 (dLV/dLT)p        1.1482   1.0821   1.0001
 Cp, KJ/(KG)(K)    2.6968   2.2728   1.5851
 GAMMAs            1.1821   1.1978   1.2585
 SON VEL,M/SEC     1107.6   1065.4    799.1
 MACH NUMBER        0.000    1.000    3.004

 PERFORMANCE PARAMETERS

 Ae/At                      1.0000   6.1177
 CSTAR, M/SEC               1575.5   1575.5
 CF                         0.6762   1.5236
 Ivac, M/SEC                1954.8   2611.8
 Isp, M/SEC                 1065.4   2400.5


 MOLE FRACTIONS

 *CO              0.17998  0.17680  0.15117
 *CO2             0.06286  0.06762  0.09497
 *H               0.00978  0.00602  0.00001
 *H2              0.06503  0.06564  0.09106
 H2O              0.17458  0.17999  0.16207
 *NO              0.00296  0.00127  0.00000
 *N2              0.49252  0.49659  0.50072
 *O               0.00088  0.00028  0.00000
 *OH              0.01047  0.00546  0.00000
 *O2              0.00092  0.00031  0.00000

  * THERMODYNAMIC PROPERTIES FITTED TO 20000.K

 NOTE. WEIGHT FRACTION OF FUEL IN TOTAL FUELS AND OF OXIDANT IN TOTAL OXIDANTS










              THEORETICAL ROCKET PERFORMANCE ASSUMING EQUILIBRIUM

           COMPOSITION DURING EXPANSION FROM INFINITE AREA COMBUSTOR

 Pin =   580.2 PSIA
 CASE =                

             REACTANT                    WT FRACTION      ENERGY      TEMP
                                          (SEE NOTE)     KJ/KG-MOL      K  
 FUEL        C32H66(a)                    0.9000000   -967800.000    298.150
 FUEL        stearic                      0.1000000   -912000.000    298.150
 OXIDANT     N2O(L),298.15K               1.0000000     65100.000    298.150

 O/F=    6.42860  %FUEL= 13.461487  R,EQ.RATIO= 1.448637  PHI,EQ.RATIO= 1.450797

                 CHAMBER   THROAT     EXIT
 Pinf/P            1.0000   1.7677   45.602
 P, BAR            40.000   22.629  0.87716
 T, K             3167.32  2919.55  1587.31
 RHO, KG/CU M    3.8526 0 2.3812 0 1.7115-1
 H, KJ/KG          976.79   410.47 -1921.30
 U, KJ/KG         -61.470  -539.84 -2433.80
 G, KJ/KG        -30830.1 -28908.3 -17861.4
 S, KJ/(KG)(K)    10.0422  10.0422  10.0422

 M, (1/n)          25.364   25.544   25.752
 (dLV/dLP)t      -1.00818 -1.00437 -1.00000
 (dLV/dLT)p        1.1669   1.0962   1.0001
 Cp, KJ/(KG)(K)    2.8110   2.3655   1.5802
 GAMMAs            1.1773   1.1919   1.2569
 SON VEL,M/SEC     1105.6   1064.3    802.6
 MACH NUMBER        0.000    1.000    3.000

 PERFORMANCE PARAMETERS

 Ae/At                      1.0000   6.1501
 CSTAR, M/SEC               1578.4   1578.4
 CF                         0.6743   1.5253
 Ivac, M/SEC                1957.2   2620.4
 Isp, M/SEC                 1064.3   2407.5


 MOLE FRACTIONS

 *CO              0.17341  0.16977  0.14495
 *CO2             0.06629  0.07163  0.09842
 *H               0.00993  0.00630  0.00001
 *H2              0.05959  0.05970  0.08330
 H2O              0.17602  0.18216  0.16698
 *NO              0.00357  0.00163  0.00000
 *N2              0.49692  0.50143  0.50633
 *O               0.00110  0.00039  0.00000
 *OH              0.01188  0.00650  0.00000
 *O2              0.00127  0.00047  0.00000

  * THERMODYNAMIC PROPERTIES FITTED TO 20000.K

 NOTE. WEIGHT FRACTION OF FUEL IN TOTAL FUELS AND OF OXIDANT IN TOTAL OXIDANTS










              THEORETICAL ROCKET PERFORMANCE ASSUMING EQUILIBRIUM

           COMPOSITION DURING EXPANSION FROM INFINITE AREA COMBUSTOR

 Pin =   580.2 PSIA
 CASE =                

             REACTANT                    WT FRACTION      ENERGY      TEMP
                                          (SEE NOTE)     KJ/KG-MOL      K  
 FUEL        C32H66(a)                    0.9000000   -967800.000    298.150
 FUEL        stearic                      0.1000000   -912000.000    298.150
 OXIDANT     N2O(L),298.15K               1.0000000     65100.000    298.150

 O/F=    6.57140  %FUEL= 13.207597  R,EQ.RATIO= 1.417305  PHI,EQ.RATIO= 1.419270

                 CHAMBER   THROAT     EXIT
 Pinf/P            1.0000   1.7640   45.602
 P, BAR            40.000   22.675  0.87716
 T, K             3186.00  2945.48  1615.46
 RHO, KG/CU M    3.8533 0 2.3808 0 1.6950-1
 H, KJ/KG          986.26   421.46 -1927.49
 U, KJ/KG         -51.816  -530.98 -2445.00
 G, KJ/KG        -30912.7 -29069.4 -18101.8
 S, KJ/(KG)(K)    10.0122  10.0122  10.0122

 M, (1/n)          25.518   25.713   25.955
 (dLV/dLP)t      -1.00915 -1.00509 -1.00001
 (dLV/dLT)p        1.1864   1.1119   1.0002
 Cp, KJ/(KG)(K)    2.9283   2.4687   1.5756
 GAMMAs            1.1730   1.1860   1.2553
 SON VEL,M/SEC     1103.5   1062.8    806.0
 MACH NUMBER        0.000    1.000    2.995

 PERFORMANCE PARAMETERS

 Ae/At                      1.0000   6.1842
 CSTAR, M/SEC               1580.8   1580.8
 CF                         0.6723   1.5271
 Ivac, M/SEC                1959.0   2628.4
 Isp, M/SEC                 1062.8   2414.0


 MOLE FRACTIONS

 *CO              0.16696  0.16280  0.13864
 *CO2             0.06965  0.07561  0.10203
 *H               0.01002  0.00653  0.00002
 HO2              0.00001  0.00000  0.00000
 *H2              0.05467  0.05431  0.07595
 H2O              0.17701  0.18381  0.17155
 *NO              0.00425  0.00206  0.00000
 *N2              0.50108  0.50603  0.51182
 *O               0.00135  0.00052  0.00000
 *OH              0.01329  0.00762  0.00000
 *O2              0.00171  0.00070  0.00000

  * THERMODYNAMIC PROPERTIES FITTED TO 20000.K

 NOTE. WEIGHT FRACTION OF FUEL IN TOTAL FUELS AND OF OXIDANT IN TOTAL OXIDANTS










              THEORETICAL ROCKET PERFORMANCE ASSUMING EQUILIBRIUM

           COMPOSITION DURING EXPANSION FROM INFINITE AREA COMBUSTOR

 Pin =   580.2 PSIA
 CASE =                

             REACTANT                    WT FRACTION      ENERGY      TEMP
                                          (SEE NOTE)     KJ/KG-MOL      K  
 FUEL        C32H66(a)                    0.9000000   -967800.000    298.150
 FUEL        stearic                      0.1000000   -912000.000    298.150
 OXIDANT     N2O(L),298.15K               1.0000000     65100.000    298.150

 O/F=    6.71430  %FUEL= 12.962939  R,EQ.RATIO= 1.387279  PHI,EQ.RATIO= 1.389064

                 CHAMBER   THROAT     EXIT
 Pinf/P            1.0000   1.7605   45.602
 P, BAR            40.000   22.721  0.87716
 T, K             3202.13  2968.65  1643.29
 RHO, KG/CU M    3.8559 0 2.3818 0 1.6790-1
 H, KJ/KG          995.39   432.36 -1932.83
 U, KJ/KG         -41.989  -521.59 -2455.25
 G, KJ/KG        -30970.9 -29203.2 -18337.6
 S, KJ/(KG)(K)     9.9828   9.9828   9.9828

 M, (1/n)          25.665   25.874   26.154
 (dLV/dLP)t      -1.01014 -1.00589 -1.00001
 (dLV/dLT)p        1.2062   1.1292   1.0002
 Cp, KJ/(KG)(K)    3.0464   2.5816   1.5714
 GAMMAs            1.1690   1.1804   1.2538
 SON VEL,M/SEC     1101.2   1061.2    809.3
 MACH NUMBER        0.000    1.000    2.990

 PERFORMANCE PARAMETERS

 Ae/At                      1.0000   6.2203
 CSTAR, M/SEC               1582.6   1582.6
 CF                         0.6705   1.5291
 Ivac, M/SEC                1960.1   2635.9
 Isp, M/SEC                 1061.2   2420.0


 MOLE FRACTIONS

 *CO              0.16064  0.15592  0.13222
 *CO2             0.07291  0.07955  0.10579
 *H               0.01003  0.00669  0.00002
 HO2              0.00001  0.00000  0.00000
 *H2              0.05022  0.04942  0.06899
 H2O              0.17761  0.18499  0.17577
 *N               0.00001  0.00000  0.00000
 *NO              0.00497  0.00255  0.00000
 *N2              0.50503  0.51040  0.51720
 *O               0.00162  0.00067  0.00000
 *OH              0.01468  0.00880  0.00000
 *O2              0.00224  0.00100  0.00000

  * THERMODYNAMIC PROPERTIES FITTED TO 20000.K

 NOTE. WEIGHT FRACTION OF FUEL IN TOTAL FUELS AND OF OXIDANT IN TOTAL OXIDANTS










              THEORETICAL ROCKET PERFORMANCE ASSUMING EQUILIBRIUM

           COMPOSITION DURING EXPANSION FROM INFINITE AREA COMBUSTOR

 Pin =   580.2 PSIA
 CASE =                

             REACTANT                    WT FRACTION      ENERGY      TEMP
                                          (SEE NOTE)     KJ/KG-MOL      K  
 FUEL        C32H66(a)                    0.9000000   -967800.000    298.150
 FUEL        stearic                      0.1000000   -912000.000    298.150
 OXIDANT     N2O(L),298.15K               1.0000000     65100.000    298.150

 O/F=    6.85710  %FUEL= 12.727342  R,EQ.RATIO= 1.358519  PHI,EQ.RATIO= 1.360136

                 CHAMBER   THROAT     EXIT
 Pinf/P            1.0000   1.7571   45.602
 P, BAR            40.000   22.764  0.87716
 T, K             3215.85  2989.04  1670.80
 RHO, KG/CU M    3.8602 0 2.3840 0 1.6636-1
 H, KJ/KG         1004.18   443.13 -1937.31
 U, KJ/KG         -32.040  -511.74 -2464.56
 G, KJ/KG        -31006.8 -29310.2 -18568.7
 S, KJ/(KG)(K)     9.9541   9.9541   9.9541

 M, (1/n)          25.803   26.027   26.348
 (dLV/dLP)t      -1.01112 -1.00675 -1.00001
 (dLV/dLT)p        1.2259   1.1479   1.0003
 Cp, KJ/(KG)(K)    3.1626   2.7018   1.5675
 GAMMAs            1.1655   1.1751   1.2522
 SON VEL,M/SEC     1099.0   1059.3    812.6
 MACH NUMBER        0.000    1.000    2.985

 PERFORMANCE PARAMETERS

 Ae/At                      1.0000   6.2584
 CSTAR, M/SEC               1583.9   1583.9
 CF                         0.6688   1.5313
 Ivac, M/SEC                1960.7   2642.9
 Isp, M/SEC                 1059.3   2425.5


 MOLE FRACTIONS

 *CO              0.15449  0.14917  0.12571
 *CO2             0.07606  0.08338  0.10971
 *H               0.00998  0.00680  0.00003
 HO2              0.00001  0.00000  0.00000
 *H2              0.04622  0.04503  0.06243
 H2O              0.17786  0.18573  0.17967
 *N               0.00001  0.00000  0.00000
 *NO              0.00573  0.00310  0.00000
 *N2              0.50878  0.51453  0.52245
 *O               0.00192  0.00085  0.00000
 *OH              0.01605  0.01001  0.00000
 *O2              0.00288  0.00139  0.00000

  * THERMODYNAMIC PROPERTIES FITTED TO 20000.K

 NOTE. WEIGHT FRACTION OF FUEL IN TOTAL FUELS AND OF OXIDANT IN TOTAL OXIDANTS










              THEORETICAL ROCKET PERFORMANCE ASSUMING EQUILIBRIUM

           COMPOSITION DURING EXPANSION FROM INFINITE AREA COMBUSTOR

 Pin =   580.2 PSIA
 CASE =                

             REACTANT                    WT FRACTION      ENERGY      TEMP
                                          (SEE NOTE)     KJ/KG-MOL      K  
 FUEL        C32H66(a)                    0.9000000   -967800.000    298.150
 FUEL        stearic                      0.1000000   -912000.000    298.150
 OXIDANT     N2O(L),298.15K               1.0000000     65100.000    298.150

 O/F=    7.00000  %FUEL= 12.500000  R,EQ.RATIO= 1.330907  PHI,EQ.RATIO= 1.332370

                 CHAMBER   THROAT     EXIT
 Pinf/P            1.0000   1.7541   45.602
 P, BAR            40.000   22.804  0.87716
 T, K             3227.38  3006.76  1698.07
 RHO, KG/CU M    3.8660 0 2.3873 0 1.6487-1
 H, KJ/KG         1012.67   453.73 -1940.95
 U, KJ/KG         -21.992  -501.50 -2472.96
 G, KJ/KG        -31022.5 -29391.6 -18796.0
 S, KJ/(KG)(K)     9.9261   9.9261   9.9261

 M, (1/n)          25.935   26.171   26.538
 (dLV/dLP)t      -1.01209 -1.00766 -1.00001
 (dLV/dLT)p        1.2451   1.1674   1.0004
 Cp, KJ/(KG)(K)    3.2748   2.8269   1.5640
 GAMMAs            1.1624   1.1703   1.2507
 SON VEL,M/SEC     1096.7   1057.3    815.7
 MACH NUMBER        0.000    1.000    2.980

 PERFORMANCE PARAMETERS

 Ae/At                      1.0000   6.2989
 CSTAR, M/SEC               1584.7   1584.7
 CF                         0.6672   1.5337
 Ivac, M/SEC                1960.8   2649.4
 Isp, M/SEC                 1057.3   2430.5


 MOLE FRACTIONS

 *CO              0.14850  0.14257  0.11909
 *CO2             0.07908  0.08710  0.11380
 *H               0.00988  0.00685  0.00004
 HO2              0.00001  0.00000  0.00000
 *H2              0.04261  0.04108  0.05625
 H2O              0.17782  0.18608  0.18323
 *N               0.00001  0.00000  0.00000
 *NO              0.00653  0.00370  0.00000
 *N2              0.51233  0.51845  0.52759
 *O               0.00222  0.00105  0.00000
 *OH              0.01736  0.01122  0.00001
 *O2              0.00362  0.00189  0.00000

  * THERMODYNAMIC PROPERTIES FITTED TO 20000.K

 NOTE. WEIGHT FRACTION OF FUEL IN TOTAL FUELS AND OF OXIDANT IN TOTAL OXIDANTS










              THEORETICAL ROCKET PERFORMANCE ASSUMING EQUILIBRIUM

           COMPOSITION DURING EXPANSION FROM INFINITE AREA COMBUSTOR

 Pin =   580.2 PSIA
 CASE =                

             REACTANT                    WT FRACTION      ENERGY      TEMP
                                          (SEE NOTE)     KJ/KG-MOL      K  
 FUEL        C32H66(a)                    0.9000000   -967800.000    298.150
 FUEL        stearic                      0.1000000   -912000.000    298.150
 OXIDANT     N2O(L),298.15K               1.0000000     65100.000    298.150

 O/F=    7.14290  %FUEL= 12.280637  R,EQ.RATIO= 1.304396  PHI,EQ.RATIO= 1.305715

                 CHAMBER   THROAT     EXIT
 Pinf/P            1.0000   1.7512   45.602
 P, BAR            40.000   22.841  0.87716
 T, K             3236.92  3021.94  1725.11
 RHO, KG/CU M    3.8732 0 2.3916 0 1.6343-1
 H, KJ/KG         1020.85   464.13 -1943.73
 U, KJ/KG         -11.886  -490.94 -2480.45
 G, KJ/KG        -31020.1 -29448.9 -19019.9
 S, KJ/(KG)(K)     9.8986   9.8986   9.8986

 M, (1/n)          26.060   26.308   26.724
 (dLV/dLP)t      -1.01302 -1.00860 -1.00001
 (dLV/dLT)p        1.2635   1.1875   1.0005
 Cp, KJ/(KG)(K)    3.3806   2.9536   1.5609
 GAMMAs            1.1596   1.1659   1.2492
 SON VEL,M/SEC     1094.3   1055.2    818.8
 MACH NUMBER        0.000    1.000    2.974

 PERFORMANCE PARAMETERS

 Ae/At                     1.00000   6.3417
 CSTAR, M/SEC               1585.0   1585.0
 CF                         0.6657   1.5363
 Ivac, M/SEC                1960.3   2655.4
 Isp, M/SEC                 1055.2   2435.0


 MOLE FRACTIONS

 *CO              0.14271  0.13616  0.11236
 *CO2             0.08196  0.09065  0.11804
 *H               0.00974  0.00685  0.00004
 HO2              0.00001  0.00000  0.00000
 *H2              0.03936  0.03754  0.05045
 H2O              0.17752  0.18608  0.18648
 *N               0.00001  0.00000  0.00000
 *NO              0.00735  0.00435  0.00000
 *N2              0.51570  0.52215  0.53262
 *O               0.00254  0.00127  0.00000
 *OH              0.01860  0.01243  0.00001
 *O2              0.00447  0.00249  0.00000

  * THERMODYNAMIC PROPERTIES FITTED TO 20000.K

 NOTE. WEIGHT FRACTION OF FUEL IN TOTAL FUELS AND OF OXIDANT IN TOTAL OXIDANTS










              THEORETICAL ROCKET PERFORMANCE ASSUMING EQUILIBRIUM

           COMPOSITION DURING EXPANSION FROM INFINITE AREA COMBUSTOR

 Pin =   580.2 PSIA
 CASE =                

             REACTANT                    WT FRACTION      ENERGY      TEMP
                                          (SEE NOTE)     KJ/KG-MOL      K  
 FUEL        C32H66(a)                    0.9000000   -967800.000    298.150
 FUEL        stearic                      0.1000000   -912000.000    298.150
 OXIDANT     N2O(L),298.15K               1.0000000     65100.000    298.150

 O/F=    7.28570  %FUEL= 12.068986  R,EQ.RATIO= 1.278938  PHI,EQ.RATIO= 1.280123

                 CHAMBER   THROAT     EXIT
 Pinf/P            1.0000   1.7487   45.602
 P, BAR            40.000   22.874  0.87716
 T, K             3244.64  3034.69  1751.94
 RHO, KG/CU M    3.8815 0 2.3966 0 1.6202-1
 H, KJ/KG         1028.75   474.26 -1945.65
 U, KJ/KG         -1.7663  -480.16 -2487.04
 G, KJ/KG        -31001.8 -29483.6 -19240.5
 S, KJ/(KG)(K)     9.8718   9.8718   9.8718

 M, (1/n)          26.179   26.437   26.906
 (dLV/dLP)t      -1.01389 -1.00954 -1.00002
 (dLV/dLT)p        1.2807   1.2074   1.0006
 Cp, KJ/(KG)(K)    3.4783   3.0784   1.5583
 GAMMAs            1.1573   1.1620   1.2477
 SON VEL,M/SEC     1092.0   1053.1    821.9
 MACH NUMBER        0.000    1.000    2.968

 PERFORMANCE PARAMETERS

 Ae/At                      1.0000   6.3868
 CSTAR, M/SEC               1584.9   1584.9
 CF                         0.6645   1.5389
 Ivac, M/SEC                1959.4   2661.0
 Isp, M/SEC                 1053.1   2439.0


 MOLE FRACTIONS

 *CO              0.13711  0.12997  0.10554
 *CO2             0.08469  0.09403  0.12243
 *H               0.00957  0.00681  0.00005
 HO2              0.00001  0.00001  0.00000
 *H2              0.03643  0.03437  0.04502
 H2O              0.17700  0.18579  0.18940
 *N               0.00001  0.00000  0.00000
 *NO              0.00819  0.00504  0.00000
 *N2              0.51890  0.52565  0.53754
 *O               0.00286  0.00151  0.00000
 *OH              0.01977  0.01359  0.00002
 *O2              0.00542  0.00322  0.00000

  * THERMODYNAMIC PROPERTIES FITTED TO 20000.K

 NOTE. WEIGHT FRACTION OF FUEL IN TOTAL FUELS AND OF OXIDANT IN TOTAL OXIDANTS










              THEORETICAL ROCKET PERFORMANCE ASSUMING EQUILIBRIUM

           COMPOSITION DURING EXPANSION FROM INFINITE AREA COMBUSTOR

 Pin =   580.2 PSIA
 CASE =                

             REACTANT                    WT FRACTION      ENERGY      TEMP
                                          (SEE NOTE)     KJ/KG-MOL      K  
 FUEL        C32H66(a)                    0.9000000   -967800.000    298.150
 FUEL        stearic                      0.1000000   -912000.000    298.150
 OXIDANT     N2O(L),298.15K               1.0000000     65100.000    298.150

 O/F=    7.42860  %FUEL= 11.864367  R,EQ.RATIO= 1.254438  PHI,EQ.RATIO= 1.255498

                 CHAMBER   THROAT     EXIT
 Pinf/P            1.0000   1.7466   45.602
 P, BAR            40.000   22.902  0.87716
 T, K             3250.76  3045.23  1778.63
 RHO, KG/CU M    3.8909 0 2.4023 0 1.6065-1
 H, KJ/KG         1036.39   484.14 -1946.71
 U, KJ/KG          8.3515  -469.19 -2492.73
 G, KJ/KG        -30969.4 -29498.0 -19458.4
 S, KJ/(KG)(K)     9.8456   9.8456   9.8456

 M, (1/n)          26.291   26.559   27.084
 (dLV/dLP)t      -1.01469 -1.01045 -1.00002
 (dLV/dLT)p        1.2965   1.2268   1.0007
 Cp, KJ/(KG)(K)    3.5668   3.1981   1.5561
 GAMMAs            1.1552   1.1586   1.2462
 SON VEL,M/SEC     1089.8   1051.0    824.9
 MACH NUMBER        0.000    1.000    2.961

 PERFORMANCE PARAMETERS

 Ae/At                      1.0000   6.4343
 CSTAR, M/SEC               1584.3   1584.3
 CF                         0.6633   1.5417
 Ivac, M/SEC                1958.1   2666.1
 Isp, M/SEC                 1051.0   2442.6


 MOLE FRACTIONS

 *CO              0.13171  0.12400  0.09861
 *CO2             0.08727  0.09721  0.12698
 *H               0.00936  0.00673  0.00006
 HNO              0.00001  0.00000  0.00000
 HO2              0.00002  0.00001  0.00000
 *H2              0.03378  0.03154  0.03994
 H2O              0.17631  0.18525  0.19202
 *N               0.00001  0.00000  0.00000
 *NO              0.00904  0.00575  0.00000
 *N2              0.52195  0.52896  0.54236
 *O               0.00319  0.00176  0.00000
 *OH              0.02086  0.01470  0.00002
 *O2              0.00648  0.00407  0.00000

  * THERMODYNAMIC PROPERTIES FITTED TO 20000.K

 NOTE. WEIGHT FRACTION OF FUEL IN TOTAL FUELS AND OF OXIDANT IN TOTAL OXIDANTS










              THEORETICAL ROCKET PERFORMANCE ASSUMING EQUILIBRIUM

           COMPOSITION DURING EXPANSION FROM INFINITE AREA COMBUSTOR

 Pin =   580.2 PSIA
 CASE =                

             REACTANT                    WT FRACTION      ENERGY      TEMP
                                          (SEE NOTE)     KJ/KG-MOL      K  
 FUEL        C32H66(a)                    0.9000000   -967800.000    298.150
 FUEL        stearic                      0.1000000   -912000.000    298.150
 OXIDANT     N2O(L),298.15K               1.0000000     65100.000    298.150

 O/F=    7.57140  %FUEL= 11.666706  R,EQ.RATIO= 1.230875  PHI,EQ.RATIO= 1.231819

                 CHAMBER   THROAT     EXIT
 Pinf/P            1.0000   1.7447   45.602
 P, BAR            40.000   22.927  0.87716
 T, K             3255.44  3053.75  1805.19
 RHO, KG/CU M    3.9012 0 2.4086 0 1.5930-1
 H, KJ/KG         1043.76   493.75 -1946.90
 U, KJ/KG          18.425  -458.12 -2497.53
 G, KJ/KG        -30924.7 -29494.2 -19673.9
 S, KJ/(KG)(K)     9.8200   9.8200   9.8200

 M, (1/n)          26.398   26.674   27.258
 (dLV/dLP)t      -1.01541 -1.01132 -1.00003
 (dLV/dLT)p        1.3108   1.2451   1.0009
 Cp, KJ/(KG)(K)    3.6453   3.3099   1.5546
 GAMMAs            1.1535   1.1557   1.2446
 SON VEL,M/SEC     1087.5   1048.8    827.8
 MACH NUMBER        0.000    1.000    2.954

 PERFORMANCE PARAMETERS

 Ae/At                      1.0000   6.4841
 CSTAR, M/SEC               1583.4   1583.4
 CF                         0.6624   1.5446
 Ivac, M/SEC                1956.4   2670.8
 Isp, M/SEC                 1048.8   2445.7


 MOLE FRACTIONS

 *CO              0.12651  0.11827  0.09159
 *CO2             0.08970  0.10020  0.13167
 *H               0.00913  0.00662  0.00008
 HNO              0.00001  0.00000  0.00000
 HO2              0.00002  0.00001  0.00000
 *H2              0.03138  0.02900  0.03521
 H2O              0.17546  0.18450  0.19434
 *N               0.00001  0.00000  0.00000
 *NO              0.00989  0.00648  0.00000
 NO2              0.00001  0.00000  0.00000
 *N2              0.52486  0.53210  0.54707
 *O               0.00351  0.00201  0.00000
 *OH              0.02187  0.01575  0.00003
 *O2              0.00764  0.00504  0.00000

  * THERMODYNAMIC PROPERTIES FITTED TO 20000.K

 NOTE. WEIGHT FRACTION OF FUEL IN TOTAL FUELS AND OF OXIDANT IN TOTAL OXIDANTS










              THEORETICAL ROCKET PERFORMANCE ASSUMING EQUILIBRIUM

           COMPOSITION DURING EXPANSION FROM INFINITE AREA COMBUSTOR

 Pin =   580.2 PSIA
 CASE =                

             REACTANT                    WT FRACTION      ENERGY      TEMP
                                          (SEE NOTE)     KJ/KG-MOL      K  
 FUEL        C32H66(a)                    0.9000000   -967800.000    298.150
 FUEL        stearic                      0.1000000   -912000.000    298.150
 OXIDANT     N2O(L),298.15K               1.0000000     65100.000    298.150

 O/F=    7.71430  %FUEL= 11.475391  R,EQ.RATIO= 1.208165  PHI,EQ.RATIO= 1.209000

                 CHAMBER   THROAT     EXIT
 Pinf/P            1.0000   1.7431   45.602
 P, BAR            40.000   22.948  0.87716
 T, K             3258.83  3060.45  1831.66
 RHO, KG/CU M    3.9121 0 2.4154 0 1.5798-1
 H, KJ/KG         1050.90   503.11 -1946.20
 U, KJ/KG          28.443  -446.98 -2501.42
 G, KJ/KG        -30869.4 -29474.1 -19887.3
 S, KJ/(KG)(K)     9.7950   9.7950   9.7950

 M, (1/n)          26.500   26.783   27.429
 (dLV/dLP)t      -1.01604 -1.01212 -1.00003
 (dLV/dLT)p        1.3234   1.2620   1.0011
 Cp, KJ/(KG)(K)    3.7134   3.4115   1.5539
 GAMMAs            1.1520   1.1532   1.2430
 SON VEL,M/SEC     1085.3   1046.7    830.7
 MACH NUMBER        0.000    1.000    2.947

 PERFORMANCE PARAMETERS

 Ae/At                      1.0000   6.5363
 CSTAR, M/SEC               1582.2   1582.2
 CF                         0.6616   1.5474
 Ivac, M/SEC                1954.4   2675.1
 Isp, M/SEC                 1046.7   2448.3


 MOLE FRACTIONS

 *CO              0.12151  0.11278  0.08447
 *CO2             0.09197  0.10299  0.13651
 *H               0.00889  0.00647  0.00009
 HNO              0.00001  0.00000  0.00000
 HO2              0.00002  0.00001  0.00000
 *H2              0.02921  0.02672  0.03082
 H2O              0.17449  0.18357  0.19638
 *N               0.00001  0.00000  0.00000
 *NO              0.01073  0.00723  0.00000
 NO2              0.00001  0.00000  0.00000
 *N2              0.52763  0.53508  0.55169
 *O               0.00382  0.00227  0.00000
 *OH              0.02279  0.01672  0.00005
 *O2              0.00889  0.00614  0.00000

  * THERMODYNAMIC PROPERTIES FITTED TO 20000.K

 NOTE. WEIGHT FRACTION OF FUEL IN TOTAL FUELS AND OF OXIDANT IN TOTAL OXIDANTS










              THEORETICAL ROCKET PERFORMANCE ASSUMING EQUILIBRIUM

           COMPOSITION DURING EXPANSION FROM INFINITE AREA COMBUSTOR

 Pin =   580.2 PSIA
 CASE =                

             REACTANT                    WT FRACTION      ENERGY      TEMP
                                          (SEE NOTE)     KJ/KG-MOL      K  
 FUEL        C32H66(a)                    0.9000000   -967800.000    298.150
 FUEL        stearic                      0.1000000   -912000.000    298.150
 OXIDANT     N2O(L),298.15K               1.0000000     65100.000    298.150

 O/F=    7.85710  %FUEL= 11.290377  R,EQ.RATIO= 1.186293  PHI,EQ.RATIO= 1.187027

                 CHAMBER   THROAT     EXIT
 Pinf/P            1.0000   1.7417   45.602
 P, BAR            40.000   22.966  0.87716
 T, K             3261.08  3065.52  1858.05
 RHO, KG/CU M    3.9238 0 2.4225 0 1.5669-1
 H, KJ/KG         1057.81   512.19 -1944.58
 U, KJ/KG          38.373  -435.82 -2504.39
 G, KJ/KG        -30804.9 -29439.8 -20098.8
 S, KJ/(KG)(K)     9.7706   9.7706   9.7706

 M, (1/n)          26.597   26.886   27.596
 (dLV/dLP)t      -1.01660 -1.01284 -1.00004
 (dLV/dLT)p        1.3342   1.2772   1.0014
 Cp, KJ/(KG)(K)    3.7711   3.5013   1.5541
 GAMMAs            1.1507   1.1511   1.2413
 SON VEL,M/SEC     1083.1   1044.6    833.6
 MACH NUMBER        0.000    1.000    2.940

 PERFORMANCE PARAMETERS

 Ae/At                      1.0000   6.5908
 CSTAR, M/SEC               1580.7   1580.7
 CF                         0.6609   1.5503
 Ivac, M/SEC                1952.1   2678.9
 Isp, M/SEC                 1044.6   2450.5


 MOLE FRACTIONS

 *CO              0.11671  0.10753  0.07727
 *CO2             0.09410  0.10557  0.14147
 *H               0.00864  0.00631  0.00010
 HNO              0.00001  0.00000  0.00000
 HO2              0.00002  0.00001  0.00000
 *H2              0.02724  0.02468  0.02675
 H2O              0.17342  0.18251  0.19813
 *N               0.00001  0.00000  0.00000
 *NO              0.01157  0.00797  0.00001
 NO2              0.00001  0.00000  0.00000
 *N2              0.53028  0.53790  0.55621
 *O               0.00413  0.00252  0.00000
 *OH              0.02363  0.01762  0.00006
 *O2              0.01023  0.00734  0.00000

  * THERMODYNAMIC PROPERTIES FITTED TO 20000.K

 NOTE. WEIGHT FRACTION OF FUEL IN TOTAL FUELS AND OF OXIDANT IN TOTAL OXIDANTS










              THEORETICAL ROCKET PERFORMANCE ASSUMING EQUILIBRIUM

           COMPOSITION DURING EXPANSION FROM INFINITE AREA COMBUSTOR

 Pin =   580.2 PSIA
 CASE =                

             REACTANT                    WT FRACTION      ENERGY      TEMP
                                          (SEE NOTE)     KJ/KG-MOL      K  
 FUEL        C32H66(a)                    0.9000000   -967800.000    298.150
 FUEL        stearic                      0.1000000   -912000.000    298.150
 OXIDANT     N2O(L),298.15K               1.0000000     65100.000    298.150

 O/F=    8.00000  %FUEL= 11.111111  R,EQ.RATIO= 1.165185  PHI,EQ.RATIO= 1.165824

                 CHAMBER   THROAT     EXIT
 Pinf/P            1.0000   1.7406   45.602
 P, BAR            40.000   22.980  0.87716
 T, K             3262.33  3069.14  1884.40
 RHO, KG/CU M    3.9359 0 2.4300 0 1.5541-1
 H, KJ/KG         1064.49   521.04 -1942.03
 U, KJ/KG          48.210  -424.67 -2506.43
 G, KJ/KG        -30732.5 -29393.1 -20308.8
 S, KJ/(KG)(K)     9.7467   9.7467   9.7467

 M, (1/n)          26.690   26.984   27.760
 (dLV/dLP)t      -1.01706 -1.01348 -1.00006
 (dLV/dLT)p        1.3435   1.2905   1.0018
 Cp, KJ/(KG)(K)    3.8187   3.5785   1.5555
 GAMMAs            1.1497   1.1493   1.2395
 SON VEL,M/SEC     1080.9   1042.6    836.4
 MACH NUMBER        0.000    1.000    2.932

 PERFORMANCE PARAMETERS

 Ae/At                      1.0000   6.6476
 CSTAR, M/SEC               1578.9   1578.9
 CF                         0.6603   1.5531
 Ivac, M/SEC                1949.7   2682.3
 Isp, M/SEC                 1042.6   2452.2


 MOLE FRACTIONS

 *CO              0.11210  0.10252  0.06999
 *CO2             0.09609  0.10796  0.14656
 *H               0.00837  0.00614  0.00011
 HNO              0.00001  0.00000  0.00000
 HO2              0.00003  0.00001  0.00000
 *H2              0.02545  0.02284  0.02298
 H2O              0.17226  0.18134  0.19961
 *N               0.00001  0.00000  0.00000
 *NO              0.01239  0.00872  0.00001
 NO2              0.00001  0.00000  0.00000
 *N2              0.53282  0.54060  0.56064
 *O               0.00442  0.00277  0.00000
 *OH              0.02438  0.01843  0.00009
 *O2              0.01165  0.00866  0.00000

  * THERMODYNAMIC PROPERTIES FITTED TO 20000.K

 NOTE. WEIGHT FRACTION OF FUEL IN TOTAL FUELS AND OF OXIDANT IN TOTAL OXIDANTS










              THEORETICAL ROCKET PERFORMANCE ASSUMING EQUILIBRIUM

           COMPOSITION DURING EXPANSION FROM INFINITE AREA COMBUSTOR

 Pin =   580.2 PSIA
 CASE =                

             REACTANT                    WT FRACTION      ENERGY      TEMP
                                          (SEE NOTE)     KJ/KG-MOL      K  
 FUEL        C32H66(a)                    0.9000000   -967800.000    298.150
 FUEL        stearic                      0.1000000   -912000.000    298.150
 OXIDANT     N2O(L),298.15K               1.0000000     65100.000    298.150

 O/F=    8.14290  %FUEL= 10.937449  R,EQ.RATIO= 1.144814  PHI,EQ.RATIO= 1.145365

                 CHAMBER   THROAT     EXIT
 Pinf/P            1.0000   1.7397   45.602
 P, BAR            40.000   22.993  0.87716
 T, K             3262.68  3071.48  1910.72
 RHO, KG/CU M    3.9485 0 2.4377 0 1.5416-1
 H, KJ/KG         1070.98   529.63 -1938.50
 U, KJ/KG          57.934  -413.56 -2507.50
 G, KJ/KG        -30653.4 -29335.6 -20517.2
 S, KJ/(KG)(K)     9.7234   9.7234   9.7234

 M, (1/n)          26.778   27.076   27.920
 (dLV/dLP)t      -1.01744 -1.01401 -1.00007
 (dLV/dLT)p        1.3511   1.3018   1.0024
 Cp, KJ/(KG)(K)    3.8567   3.6428   1.5586
 GAMMAs            1.1488   1.1479   1.2375
 SON VEL,M/SEC     1078.8   1040.5    839.1
 MACH NUMBER        0.000    1.000    2.924

 PERFORMANCE PARAMETERS

 Ae/At                      1.0000   6.7068
 CSTAR, M/SEC               1577.0   1577.0
 CF                         0.6598   1.5557
 Ivac, M/SEC                1947.0   2685.3
 Isp, M/SEC                 1040.5   2453.4


 MOLE FRACTIONS

 *CO              0.10768  0.09774  0.06264
 *CO2             0.09794  0.11016  0.15175
 *H               0.00811  0.00595  0.00013
 HNO              0.00001  0.00000  0.00000
 HO2              0.00003  0.00001  0.00000
 *H2              0.02381  0.02117  0.01951
 H2O              0.17105  0.18007  0.20084
 *N               0.00001  0.00000  0.00000
 *NO              0.01319  0.00945  0.00002
 NO2              0.00001  0.00001  0.00000
 *N2              0.53526  0.54316  0.56498
 *O               0.00470  0.00301  0.00000
 *OH              0.02506  0.01917  0.00013
 *O2              0.01314  0.01008  0.00000

  * THERMODYNAMIC PROPERTIES FITTED TO 20000.K

 NOTE. WEIGHT FRACTION OF FUEL IN TOTAL FUELS AND OF OXIDANT IN TOTAL OXIDANTS










              THEORETICAL ROCKET PERFORMANCE ASSUMING EQUILIBRIUM

           COMPOSITION DURING EXPANSION FROM INFINITE AREA COMBUSTOR

 Pin =   580.2 PSIA
 CASE =                

             REACTANT                    WT FRACTION      ENERGY      TEMP
                                          (SEE NOTE)     KJ/KG-MOL      K  
 FUEL        C32H66(a)                    0.9000000   -967800.000    298.150
 FUEL        stearic                      0.1000000   -912000.000    298.150
 OXIDANT     N2O(L),298.15K               1.0000000     65100.000    298.150

 O/F=    8.28570  %FUEL= 10.769247  R,EQ.RATIO= 1.125158  PHI,EQ.RATIO= 1.125625

                 CHAMBER   THROAT     EXIT
 Pinf/P            1.0000   1.7389   45.602
 P, BAR            40.000   23.002  0.87716
 T, K             3262.24  3072.67  1936.99
 RHO, KG/CU M    3.9615 0 2.4457 0 1.5292-1
 H, KJ/KG         1077.25   537.99 -1933.94
 U, KJ/KG          67.526  -402.53 -2507.54
 G, KJ/KG        -30568.5 -29268.9 -20724.0
 S, KJ/(KG)(K)     9.7006   9.7006   9.7006

 M, (1/n)          26.863   27.164   28.077
 (dLV/dLP)t      -1.01774 -1.01445 -1.00009
 (dLV/dLT)p        1.3571   1.3111   1.0031
 Cp, KJ/(KG)(K)    3.8856   3.6944   1.5643
 GAMMAs            1.1481   1.1467   1.2352
 SON VEL,M/SEC     1076.7   1038.5    841.7
 MACH NUMBER        0.000    1.000    2.916

 PERFORMANCE PARAMETERS

 Ae/At                      1.0000   6.7682
 CSTAR, M/SEC               1574.8   1574.8
 CF                         0.6594   1.5583
 Ivac, M/SEC                1944.2   2687.8
 Isp, M/SEC                 1038.5   2454.1


 MOLE FRACTIONS

 *CO              0.10344  0.09318  0.05524
 *CO2             0.09965  0.11219  0.15704
 *H               0.00784  0.00575  0.00014
 HNO              0.00001  0.00000  0.00000
 HO2              0.00003  0.00002  0.00000
 *H2              0.02231  0.01967  0.01633
 H2O              0.16978  0.17874  0.20182
 *N               0.00001  0.00000  0.00000
 *NO              0.01398  0.01017  0.00003
 NO2              0.00001  0.00001  0.00000
 *N2              0.53760  0.54561  0.56922
 *O               0.00496  0.00324  0.00000
 *OH              0.02566  0.01982  0.00018
 *O2              0.01470  0.01159  0.00001

  * THERMODYNAMIC PROPERTIES FITTED TO 20000.K

 NOTE. WEIGHT FRACTION OF FUEL IN TOTAL FUELS AND OF OXIDANT IN TOTAL OXIDANTS










              THEORETICAL ROCKET PERFORMANCE ASSUMING EQUILIBRIUM

           COMPOSITION DURING EXPANSION FROM INFINITE AREA COMBUSTOR

 Pin =   580.2 PSIA
 CASE =                

             REACTANT                    WT FRACTION      ENERGY      TEMP
                                          (SEE NOTE)     KJ/KG-MOL      K  
 FUEL        C32H66(a)                    0.9000000   -967800.000    298.150
 FUEL        stearic                      0.1000000   -912000.000    298.150
 OXIDANT     N2O(L),298.15K               1.0000000     65100.000    298.150

 O/F=    8.42860  %FUEL= 10.606028  R,EQ.RATIO= 1.106151  PHI,EQ.RATIO= 1.106541

                 CHAMBER   THROAT     EXIT
 Pinf/P            1.0000   1.7384   45.602
 P, BAR            40.000   23.010  0.87716
 T, K             3261.09  3072.87  1963.21
 RHO, KG/CU M    3.9748 0 2.4539 0 1.5170-1
 H, KJ/KG         1083.34   546.12 -1928.29
 U, KJ/KG          76.993  -391.58 -2506.50
 G, KJ/KG        -30478.7 -29194.2 -20928.9
 S, KJ/(KG)(K)     9.6784   9.6784   9.6784

 M, (1/n)          26.943   27.247   28.230
 (dLV/dLP)t      -1.01797 -1.01480 -1.00013
 (dLV/dLT)p        1.3618   1.3184   1.0043
 Cp, KJ/(KG)(K)    3.9063   3.7338   1.5740
 GAMMAs            1.1475   1.1458   1.2324
 SON VEL,M/SEC     1074.6   1036.5    844.2
 MACH NUMBER        0.000    1.000    2.907

 PERFORMANCE PARAMETERS

 Ae/At                      1.0000   6.8319
 CSTAR, M/SEC               1572.6   1572.6
 CF                         0.6591   1.5606
 Ivac, M/SEC                1941.2   2689.8
 Isp, M/SEC                 1036.5   2454.2


 MOLE FRACTIONS

 *CO              0.09937  0.08884  0.04780
 *CO2             0.10124  0.11404  0.16240
 *H               0.00757  0.00555  0.00016
 HNO              0.00001  0.00000  0.00000
 HO2              0.00003  0.00002  0.00000
 *H2              0.02094  0.01830  0.01341
 H2O              0.16847  0.17735  0.20256
 *N               0.00001  0.00000  0.00000
 *NO              0.01475  0.01088  0.00005
 NO2              0.00001  0.00001  0.00000
 *N2              0.53985  0.54796  0.57336
 *O               0.00521  0.00346  0.00000
 *OH              0.02618  0.02040  0.00025
 *O2              0.01633  0.01319  0.00001

  * THERMODYNAMIC PROPERTIES FITTED TO 20000.K

 NOTE. WEIGHT FRACTION OF FUEL IN TOTAL FUELS AND OF OXIDANT IN TOTAL OXIDANTS










              THEORETICAL ROCKET PERFORMANCE ASSUMING EQUILIBRIUM

           COMPOSITION DURING EXPANSION FROM INFINITE AREA COMBUSTOR

 Pin =   580.2 PSIA
 CASE =                

             REACTANT                    WT FRACTION      ENERGY      TEMP
                                          (SEE NOTE)     KJ/KG-MOL      K  
 FUEL        C32H66(a)                    0.9000000   -967800.000    298.150
 FUEL        stearic                      0.1000000   -912000.000    298.150
 OXIDANT     N2O(L),298.15K               1.0000000     65100.000    298.150

 O/F=    8.57140  %FUEL= 10.447792  R,EQ.RATIO= 1.087789  PHI,EQ.RATIO= 1.088106

                 CHAMBER   THROAT     EXIT
 Pinf/P            1.0000   1.7379   45.602
 P, BAR            40.000   23.016  0.87716
 T, K             3259.33  3072.17  1989.25
 RHO, KG/CU M    3.9883 0 2.4622 0 1.5051-1
 H, KJ/KG         1089.25   554.04 -1921.45
 U, KJ/KG          86.313  -380.74 -2504.25
 G, KJ/KG        -30384.9 -29112.8 -21130.9
 S, KJ/(KG)(K)     9.6566   9.6566   9.6566

 M, (1/n)          27.020   27.326   28.380
 (dLV/dLP)t      -1.01813 -1.01506 -1.00018
 (dLV/dLT)p        1.3651   1.3239   1.0061
 Cp, KJ/(KG)(K)    3.9193   3.7618   1.5907
 GAMMAs            1.1470   1.1451   1.2289
 SON VEL,M/SEC     1072.6   1034.6    846.3
 MACH NUMBER        0.000    1.000    2.900

 PERFORMANCE PARAMETERS

 Ae/At                      1.0000   6.8976
 CSTAR, M/SEC               1570.2   1570.2
 CF                         0.6589   1.5628
 Ivac, M/SEC                1938.1   2691.4
 Isp, M/SEC                 1034.6   2453.9


 MOLE FRACTIONS

 *CO              0.09547  0.08470  0.04035
 *CO2             0.10271  0.11572  0.16781
 *H               0.00731  0.00535  0.00017
 HNO              0.00001  0.00000  0.00000
 HO2              0.00003  0.00002  0.00000
 *H2              0.01968  0.01706  0.01075
 H2O              0.16714  0.17593  0.20307
 *N               0.00001  0.00000  0.00000
 *NO              0.01549  0.01156  0.00007
 NO2              0.00001  0.00001  0.00000
 *N2              0.54201  0.55020  0.57740
 *O               0.00545  0.00366  0.00000
 *OH              0.02664  0.02090  0.00035
 *O2              0.01801  0.01486  0.00003

  * THERMODYNAMIC PROPERTIES FITTED TO 20000.K

 NOTE. WEIGHT FRACTION OF FUEL IN TOTAL FUELS AND OF OXIDANT IN TOTAL OXIDANTS










              THEORETICAL ROCKET PERFORMANCE ASSUMING EQUILIBRIUM

           COMPOSITION DURING EXPANSION FROM INFINITE AREA COMBUSTOR

 Pin =   580.2 PSIA
 CASE =                

             REACTANT                    WT FRACTION      ENERGY      TEMP
                                          (SEE NOTE)     KJ/KG-MOL      K  
 FUEL        C32H66(a)                    0.9000000   -967800.000    298.150
 FUEL        stearic                      0.1000000   -912000.000    298.150
 OXIDANT     N2O(L),298.15K               1.0000000     65100.000    298.150

 O/F=    8.71430  %FUEL= 10.294103  R,EQ.RATIO= 1.070014  PHI,EQ.RATIO= 1.070263

                 CHAMBER   THROAT     EXIT
 Pinf/P            1.0000   1.7376   45.602
 P, BAR            40.000   23.021  0.87716
 T, K             3257.01  3070.70  2014.87
 RHO, KG/CU M    4.0021 0 2.4707 0 1.4935-1
 H, KJ/KG         1094.98   561.75 -1913.31
 U, KJ/KG          95.497  -370.01 -2500.62
 G, KJ/KG        -30287.5 -29025.5 -21327.3
 S, KJ/(KG)(K)     9.6354   9.6354   9.6354

 M, (1/n)          27.094   27.401   28.524
 (dLV/dLP)t      -1.01822 -1.01524 -1.00027
 (dLV/dLT)p        1.3672   1.3277   1.0093
 Cp, KJ/(KG)(K)    3.9254   3.7794   1.6210
 GAMMAs            1.1467   1.1446   1.2238
 SON VEL,M/SEC     1070.5   1032.7    847.8
 MACH NUMBER        0.000    1.000    2.893

 PERFORMANCE PARAMETERS

 Ae/At                      1.0000   6.9647
 CSTAR, M/SEC               1567.7   1567.7
 CF                         0.6587   1.5646
 Ivac, M/SEC                1935.0   2692.3
 Isp, M/SEC                 1032.7   2452.9


 MOLE FRACTIONS

 *CO              0.09173  0.08076  0.03294
 *CO2             0.10407  0.11726  0.17320
 *H               0.00705  0.00514  0.00018
 HNO              0.00001  0.00000  0.00000
 HO2              0.00004  0.00002  0.00000
 *H2              0.01852  0.01593  0.00834
 H2O              0.16578  0.17447  0.20333
 *N               0.00001  0.00000  0.00000
 *NO              0.01621  0.01223  0.00013
 NO2              0.00002  0.00001  0.00000
 *N2              0.54410  0.55236  0.58131
 *O               0.00566  0.00385  0.00001
 *OH              0.02703  0.02134  0.00050
 *O2              0.01975  0.01661  0.00007

  * THERMODYNAMIC PROPERTIES FITTED TO 20000.K

 NOTE. WEIGHT FRACTION OF FUEL IN TOTAL FUELS AND OF OXIDANT IN TOTAL OXIDANTS










              THEORETICAL ROCKET PERFORMANCE ASSUMING EQUILIBRIUM

           COMPOSITION DURING EXPANSION FROM INFINITE AREA COMBUSTOR

 Pin =   580.2 PSIA
 CASE =                

             REACTANT                    WT FRACTION      ENERGY      TEMP
                                          (SEE NOTE)     KJ/KG-MOL      K  
 FUEL        C32H66(a)                    0.9000000   -967800.000    298.150
 FUEL        stearic                      0.1000000   -912000.000    298.150
 OXIDANT     N2O(L),298.15K               1.0000000     65100.000    298.150

 O/F=    8.85710  %FUEL= 10.144972  R,EQ.RATIO= 1.052823  PHI,EQ.RATIO= 1.053007

                 CHAMBER   THROAT     EXIT
 Pinf/P            1.0000   1.7373   45.602
 P, BAR            40.000   23.024  0.87716
 T, K             3254.20  3068.53  2039.30
 RHO, KG/CU M    4.0160 0 2.4793 0 1.4828-1
 H, KJ/KG         1100.55   569.27 -1903.68
 U, KJ/KG          104.53  -359.41 -2495.25
 G, KJ/KG        -30187.3 -28933.4 -21510.7
 S, KJ/(KG)(K)     9.6146   9.6146   9.6146

 M, (1/n)          27.165   27.473   28.663
 (dLV/dLP)t      -1.01826 -1.01534 -1.00046
 (dLV/dLT)p        1.3682   1.3300   1.0154
 Cp, KJ/(KG)(K)    3.9254   3.7875   1.6794
 GAMMAs            1.1464   1.1442   1.2160
 SON VEL,M/SEC     1068.6   1030.8    848.1
 MACH NUMBER        0.000    1.000    2.890

 PERFORMANCE PARAMETERS

 Ae/At                     1.00000   7.0314
 CSTAR, M/SEC               1565.2   1565.2
 CF                         0.6586   1.5661
 Ivac, M/SEC                1931.7   2692.6
 Isp, M/SEC                 1030.8   2451.2


 MOLE FRACTIONS

 *CO              0.08815  0.07702  0.02568
 *CO2             0.10532  0.11865  0.17846
 *H               0.00679  0.00494  0.00018
 HNO              0.00001  0.00000  0.00000
 HO2              0.00004  0.00002  0.00000
 *H2              0.01746  0.01489  0.00619
 H2O              0.16441  0.17300  0.20331
 *N               0.00001  0.00000  0.00000
 *NO              0.01691  0.01287  0.00022
 NO2              0.00002  0.00001  0.00000
 *N2              0.54612  0.55443  0.58506
 N2O              0.00001  0.00000  0.00000
 *O               0.00587  0.00403  0.00001
 *OH              0.02737  0.02171  0.00071
 *O2              0.02152  0.01842  0.00018

  * THERMODYNAMIC PROPERTIES FITTED TO 20000.K

 NOTE. WEIGHT FRACTION OF FUEL IN TOTAL FUELS AND OF OXIDANT IN TOTAL OXIDANTS










              THEORETICAL ROCKET PERFORMANCE ASSUMING EQUILIBRIUM

           COMPOSITION DURING EXPANSION FROM INFINITE AREA COMBUSTOR

 Pin =   580.2 PSIA
 CASE =                

             REACTANT                    WT FRACTION      ENERGY      TEMP
                                          (SEE NOTE)     KJ/KG-MOL      K  
 FUEL        C32H66(a)                    0.9000000   -967800.000    298.150
 FUEL        stearic                      0.1000000   -912000.000    298.150
 OXIDANT     N2O(L),298.15K               1.0000000     65100.000    298.150

 O/F=    9.00000  %FUEL= 10.000000  R,EQ.RATIO= 1.036164  PHI,EQ.RATIO= 1.036288

                 CHAMBER   THROAT     EXIT
 Pinf/P            1.0000   1.7371   45.602
 P, BAR            40.000   23.026  0.87716
 T, K             3250.95  3065.75  2060.62
 RHO, KG/CU M    4.0300 0 2.4879 0 1.4739-1
 H, KJ/KG         1105.96   576.59 -1892.37
 U, KJ/KG          113.41  -348.93 -2487.48
 G, KJ/KG        -30084.5 -28837.0 -21662.5
 S, KJ/(KG)(K)     9.5943   9.5943   9.5943

 M, (1/n)          27.233   27.541   28.790
 (dLV/dLP)t      -1.01824 -1.01537 -1.00083
 (dLV/dLT)p        1.3682   1.3309   1.0277
 Cp, KJ/(KG)(K)    3.9199   3.7873   1.7937
 GAMMAs            1.1462   1.1439   1.2037
 SON VEL,M/SEC     1066.6   1028.9    846.4
 MACH NUMBER        0.000    1.000    2.893

 PERFORMANCE PARAMETERS

 Ae/At                     1.00000   7.0924
 CSTAR, M/SEC               1562.5   1562.5
 CF                         0.6585   1.5672
 Ivac, M/SEC                1928.4   2691.8
 Isp, M/SEC                 1028.9   2448.8


 MOLE FRACTIONS

 *CO              0.08472  0.07344  0.01884
 *CO2             0.10647  0.11991  0.18328
 *H               0.00654  0.00474  0.00017
 HNO              0.00001  0.00000  0.00000
 HO2              0.00004  0.00002  0.00000
 *H2              0.01647  0.01394  0.00435
 H2O              0.16303  0.17151  0.20293
 *N               0.00001  0.00000  0.00000
 *NO              0.01758  0.01348  0.00038
 NO2              0.00002  0.00001  0.00000
 *N2              0.54806  0.55643  0.58852
 N2O              0.00001  0.00000  0.00000
 *O               0.00605  0.00419  0.00003
 *OH              0.02765  0.02201  0.00100
 *O2              0.02334  0.02029  0.00050

  * THERMODYNAMIC PROPERTIES FITTED TO 20000.K

 NOTE. WEIGHT FRACTION OF FUEL IN TOTAL FUELS AND OF OXIDANT IN TOTAL OXIDANTS










              THEORETICAL ROCKET PERFORMANCE ASSUMING EQUILIBRIUM

           COMPOSITION DURING EXPANSION FROM INFINITE AREA COMBUSTOR

 Pin =   580.2 PSIA
 CASE =                

             REACTANT                    WT FRACTION      ENERGY      TEMP
                                          (SEE NOTE)     KJ/KG-MOL      K  
 FUEL        C32H66(a)                    0.9000000   -967800.000    298.150
 FUEL        stearic                      0.1000000   -912000.000    298.150
 OXIDANT     N2O(L),298.15K               1.0000000     65100.000    298.150

 O/F=    9.14290  %FUEL=  9.859113  R,EQ.RATIO= 1.020023  PHI,EQ.RATIO= 1.020091

                 CHAMBER   THROAT     EXIT
 Pinf/P            1.0000   1.7371   45.602
 P, BAR            40.000   23.027  0.87716
 T, K             3247.32  3062.42  2074.63
 RHO, KG/CU M    4.0442 0 2.4966 0 1.4694-1
 H, KJ/KG         1111.21   583.74 -1879.20
 U, KJ/KG          122.15  -338.60 -2476.15
 G, KJ/KG        -29979.8 -28737.0 -21742.5
 S, KJ/(KG)(K)     9.5744   9.5744   9.5744

 M, (1/n)          27.298   27.607   28.896
 (dLV/dLP)t      -1.01818 -1.01534 -1.00141
 (dLV/dLT)p        1.3673   1.3305   1.0464
 Cp, KJ/(KG)(K)    3.9096   3.7797   1.9650
 GAMMAs            1.1461   1.1438   1.1889
 SON VEL,M/SEC     1064.7   1027.1    842.5
 MACH NUMBER        0.000    1.000    2.903

 PERFORMANCE PARAMETERS

 Ae/At                      1.0000   7.1360
 CSTAR, M/SEC               1559.9   1559.9
 CF                         0.6585   1.5678
 Ivac, M/SEC                1925.1   2689.7
 Isp, M/SEC                 1027.1   2445.6


 MOLE FRACTIONS

 *CO              0.08142  0.07004  0.01302
 *CO2             0.10752  0.12104  0.18699
 *H               0.00629  0.00455  0.00015
 HNO              0.00001  0.00000  0.00000
 HO2              0.00004  0.00003  0.00000
 *H2              0.01555  0.01307  0.00290
 H2O              0.16165  0.17002  0.20203
 *N               0.00001  0.00000  0.00000
 *NO              0.01823  0.01408  0.00065
 NO2              0.00002  0.00001  0.00000
 *N2              0.54995  0.55835  0.59148
 N2O              0.00001  0.00000  0.00000
 *O               0.00622  0.00433  0.00005
 *OH              0.02788  0.02227  0.00137
 *O2              0.02519  0.02221  0.00136

  * THERMODYNAMIC PROPERTIES FITTED TO 20000.K

 NOTE. WEIGHT FRACTION OF FUEL IN TOTAL FUELS AND OF OXIDANT IN TOTAL OXIDANTS










              THEORETICAL ROCKET PERFORMANCE ASSUMING EQUILIBRIUM

           COMPOSITION DURING EXPANSION FROM INFINITE AREA COMBUSTOR

 Pin =   580.2 PSIA
 CASE =                

             REACTANT                    WT FRACTION      ENERGY      TEMP
                                          (SEE NOTE)     KJ/KG-MOL      K  
 FUEL        C32H66(a)                    0.9000000   -967800.000    298.150
 FUEL        stearic                      0.1000000   -912000.000    298.150
 OXIDANT     N2O(L),298.15K               1.0000000     65100.000    298.150

 O/F=    9.28570  %FUEL=  9.722236  R,EQ.RATIO= 1.004389  PHI,EQ.RATIO= 1.004404

                 CHAMBER   THROAT     EXIT
 Pinf/P            1.0000   1.7370   45.602
 P, BAR            40.000   23.028  0.87716
 T, K             3243.33  3058.61  2077.44
 RHO, KG/CU M    4.0585 0 2.5054 0 1.4712-1
 H, KJ/KG         1116.32   590.70 -1864.25
 U, KJ/KG          130.73  -328.41 -2460.45
 G, KJ/KG        -29873.6 -28634.2 -21714.1
 S, KJ/(KG)(K)     9.5550   9.5550   9.5550

 M, (1/n)          27.361   27.669   28.972
 (dLV/dLP)t      -1.01808 -1.01526 -1.00177
 (dLV/dLT)p        1.3657   1.3290   1.0576
 Cp, KJ/(KG)(K)    3.8951   3.7657   2.0637
 GAMMAs            1.1460   1.1438   1.1817
 SON VEL,M/SEC     1062.8   1025.3    839.4
 MACH NUMBER        0.000    1.000    2.909

 PERFORMANCE PARAMETERS

 Ae/At                      1.0000   7.1512
 CSTAR, M/SEC               1557.1   1557.1
 CF                         0.6584   1.5680
 Ivac, M/SEC                1921.7   2685.7
 Isp, M/SEC                 1025.3   2441.5


 MOLE FRACTIONS

 *CO              0.07827  0.06681  0.00884
 *CO2             0.10848  0.12205  0.18890
 *H               0.00606  0.00436  0.00013
 HNO              0.00001  0.00000  0.00000
 HO2              0.00004  0.00003  0.00000
 *H2              0.01470  0.01227  0.00193
 H2O              0.16026  0.16852  0.20052
 *N               0.00001  0.00000  0.00000
 *NO              0.01885  0.01464  0.00100
 NO2              0.00002  0.00001  0.00000
 *N2              0.55177  0.56020  0.59376
 N2O              0.00001  0.00000  0.00000
 *O               0.00637  0.00446  0.00007
 *OH              0.02806  0.02247  0.00170
 *O2              0.02708  0.02417  0.00315

  * THERMODYNAMIC PROPERTIES FITTED TO 20000.K

 NOTE. WEIGHT FRACTION OF FUEL IN TOTAL FUELS AND OF OXIDANT IN TOTAL OXIDANTS










              THEORETICAL ROCKET PERFORMANCE ASSUMING EQUILIBRIUM

           COMPOSITION DURING EXPANSION FROM INFINITE AREA COMBUSTOR

 Pin =   580.2 PSIA
 CASE =                

             REACTANT                    WT FRACTION      ENERGY      TEMP
                                          (SEE NOTE)     KJ/KG-MOL      K  
 FUEL        C32H66(a)                    0.9000000   -967800.000    298.150
 FUEL        stearic                      0.1000000   -912000.000    298.150
 OXIDANT     N2O(L),298.15K               1.0000000     65100.000    298.150

 O/F=    9.42860  %FUEL=  9.589015  R,EQ.RATIO= 0.989216  PHI,EQ.RATIO= 0.989181

                 CHAMBER   THROAT     EXIT
 Pinf/P            1.0000   1.7371   45.602
 P, BAR            40.000   23.027  0.87716
 T, K             3239.04  3054.37  2070.68
 RHO, KG/CU M    4.0728 0 2.5142 0 1.4785-1
 H, KJ/KG         1121.29   597.50 -1847.93
 U, KJ/KG          139.17  -318.36 -2441.20
 G, KJ/KG        -29765.9 -28528.8 -21593.8
 S, KJ/(KG)(K)     9.5359   9.5359   9.5359

 M, (1/n)          27.421   27.729   29.020
 (dLV/dLP)t      -1.01795 -1.01513 -1.00167
 (dLV/dLT)p        1.3634   1.3266   1.0542
 Cp, KJ/(KG)(K)    3.8768   3.7460   2.0299
 GAMMAs            1.1460   1.1438   1.1837
 SON VEL,M/SEC     1060.9   1023.5    838.0
 MACH NUMBER        0.000    1.000    2.908

 PERFORMANCE PARAMETERS

 Ae/At                      1.0000   7.1423
 CSTAR, M/SEC               1554.4   1554.4
 CF                         0.6585   1.5678
 Ivac, M/SEC                1918.3   2680.3
 Isp, M/SEC                 1023.5   2436.9


 MOLE FRACTIONS

 *CO              0.07524  0.06372  0.00618
 *CO2             0.10935  0.12294  0.18918
 *H               0.00583  0.00417  0.00010
 HNO              0.00001  0.00000  0.00000
 HO2              0.00005  0.00003  0.00000
 *H2              0.01391  0.01153  0.00134
 H2O              0.15888  0.16703  0.19857
 *N               0.00001  0.00000  0.00000
 *NO              0.01945  0.01519  0.00134
 NO2              0.00002  0.00001  0.00000
 *N2              0.55353  0.56199  0.59547
 N2O              0.00001  0.00000  0.00000
 *O               0.00651  0.00458  0.00009
 *OH              0.02820  0.02262  0.00191
 *O2              0.02899  0.02617  0.00582

  * THERMODYNAMIC PROPERTIES FITTED TO 20000.K

 NOTE. WEIGHT FRACTION OF FUEL IN TOTAL FUELS AND OF OXIDANT IN TOTAL OXIDANTS










              THEORETICAL ROCKET PERFORMANCE ASSUMING EQUILIBRIUM

           COMPOSITION DURING EXPANSION FROM INFINITE AREA COMBUSTOR

 Pin =   580.2 PSIA
 CASE =                

             REACTANT                    WT FRACTION      ENERGY      TEMP
                                          (SEE NOTE)     KJ/KG-MOL      K  
 FUEL        C32H66(a)                    0.9000000   -967800.000    298.150
 FUEL        stearic                      0.1000000   -912000.000    298.150
 OXIDANT     N2O(L),298.15K               1.0000000     65100.000    298.150

 O/F=    9.57140  %FUEL=  9.459485  R,EQ.RATIO= 0.974505  PHI,EQ.RATIO= 0.974423

                 CHAMBER   THROAT     EXIT
 Pinf/P            1.0000   1.7372   45.602
 P, BAR            40.000   23.026  0.87716
 T, K             3234.47  3049.76  2058.54
 RHO, KG/CU M    4.0872 0 2.5231 0 1.4889-1
 H, KJ/KG         1126.13   604.14 -1830.72
 U, KJ/KG          147.45  -308.47 -2419.86
 G, KJ/KG        -29657.4 -28421.4 -21422.5
 S, KJ/(KG)(K)     9.5173   9.5173   9.5173

 M, (1/n)          27.479   27.786   29.052
 (dLV/dLP)t      -1.01778 -1.01496 -1.00141
 (dLV/dLT)p        1.3604   1.3233   1.0458
 Cp, KJ/(KG)(K)    3.8553   3.7217   1.9508
 GAMMAs            1.1461   1.1440   1.1891
 SON VEL,M/SEC     1059.1   1021.8    837.0
 MACH NUMBER        0.000    1.000    2.905

 PERFORMANCE PARAMETERS

 Ae/At                      1.0000   7.1201
 CSTAR, M/SEC               1551.6   1551.6
 CF                         0.6585   1.5673
 Ivac, M/SEC                1914.9   2674.1
 Isp, M/SEC                 1021.8   2431.8


 MOLE FRACTIONS

 *CO              0.07234  0.06078  0.00449
 *CO2             0.11014  0.12374  0.18844
 *H               0.00560  0.00399  0.00008
 HNO              0.00001  0.00000  0.00000
 HO2              0.00005  0.00003  0.00000
 *H2              0.01318  0.01084  0.00098
 H2O              0.15751  0.16555  0.19640
 *N               0.00001  0.00000  0.00000
 *NO              0.02002  0.01571  0.00162
 NO2              0.00002  0.00002  0.00000
 *N2              0.55524  0.56372  0.59684
 N2O              0.00001  0.00000  0.00000
 *O               0.00664  0.00468  0.00011
 *OH              0.02829  0.02273  0.00201
 *O2              0.03092  0.02820  0.00903

  * THERMODYNAMIC PROPERTIES FITTED TO 20000.K

 NOTE. WEIGHT FRACTION OF FUEL IN TOTAL FUELS AND OF OXIDANT IN TOTAL OXIDANTS










              THEORETICAL ROCKET PERFORMANCE ASSUMING EQUILIBRIUM

           COMPOSITION DURING EXPANSION FROM INFINITE AREA COMBUSTOR

 Pin =   580.2 PSIA
 CASE =                

             REACTANT                    WT FRACTION      ENERGY      TEMP
                                          (SEE NOTE)     KJ/KG-MOL      K  
 FUEL        C32H66(a)                    0.9000000   -967800.000    298.150
 FUEL        stearic                      0.1000000   -912000.000    298.150
 OXIDANT     N2O(L),298.15K               1.0000000     65100.000    298.150

 O/F=    9.71430  %FUEL=  9.333321  R,EQ.RATIO= 0.960216  PHI,EQ.RATIO= 0.960089

                 CHAMBER   THROAT     EXIT
 Pinf/P            1.0000   1.7373   45.602
 P, BAR            40.000   23.024  0.87716
 T, K             3229.65  3044.79  2043.74
 RHO, KG/CU M    4.1016 0 2.5320 0 1.5008-1
 H, KJ/KG         1130.83   610.62 -1812.94
 U, KJ/KG          155.60  -298.71 -2397.39
 G, KJ/KG        -29548.0 -28312.2 -21226.7
 S, KJ/(KG)(K)     9.4991   9.4991   9.4991

 M, (1/n)          27.535   27.840   29.075
 (dLV/dLP)t      -1.01759 -1.01475 -1.00115
 (dLV/dLT)p        1.3570   1.3194   1.0377
 Cp, KJ/(KG)(K)    3.8311   3.6933   1.8749
 GAMMAs            1.1462   1.1442   1.1949
 SON VEL,M/SEC     1057.3   1020.0    835.7
 MACH NUMBER        0.000    1.000    2.904

 PERFORMANCE PARAMETERS

 Ae/At                      1.0000   7.0919
 CSTAR, M/SEC               1548.8   1548.8
 CF                         0.6586   1.5667
 Ivac, M/SEC                1911.5   2667.3
 Isp, M/SEC                 1020.0   2426.4


 MOLE FRACTIONS

 *CO              0.06956  0.05798  0.00337
 *CO2             0.11086  0.12444  0.18714
 *H               0.00539  0.00381  0.00006
 HNO              0.00001  0.00000  0.00000
 HO2              0.00005  0.00003  0.00000
 *H2              0.01250  0.01020  0.00074
 H2O              0.15614  0.16408  0.19414
 *N               0.00001  0.00000  0.00000
 *NO              0.02057  0.01620  0.00183
 NO2              0.00003  0.00002  0.00000
 *N2              0.55690  0.56539  0.59803
 N2O              0.00001  0.00000  0.00000
 *O               0.00675  0.00477  0.00011
 *OH              0.02835  0.02279  0.00203
 *O2              0.03288  0.03026  0.01254

  * THERMODYNAMIC PROPERTIES FITTED TO 20000.K

 NOTE. WEIGHT FRACTION OF FUEL IN TOTAL FUELS AND OF OXIDANT IN TOTAL OXIDANTS










              THEORETICAL ROCKET PERFORMANCE ASSUMING EQUILIBRIUM

           COMPOSITION DURING EXPANSION FROM INFINITE AREA COMBUSTOR

 Pin =   580.2 PSIA
 CASE =                

[...]

 Ae/At                      1.0000   6.8514
 CSTAR, M/SEC               1526.2   1526.2
 CF                         0.6598   1.5594
 Ivac, M/SEC                1884.2   2609.1
 Isp, M/SEC                 1006.9   2379.8


 MOLE FRACTIONS

 *CO              0.05099  0.03983  0.00056
 *CO2             0.11427  0.12716  0.17203
 *H               0.00391  0.00262  0.00001
 HNO              0.00001  0.00000  0.00000
 HO2              0.00006  0.00004  0.00000
 *H2              0.00838  0.00647  0.00013
 H2O              0.14569  0.15281  0.17667
 *N               0.00001  0.00000  0.00000
 *NO              0.02417  0.01932  0.00233
 NO2              0.00004  0.00003  0.00000
 *N2              0.56859  0.57706  0.60527
 N2O              0.00001  0.00000  0.00000
 *O               0.00719  0.00507  0.00007
 *OH              0.02782  0.02223  0.00137
 *O2              0.04887  0.04735  0.04155

  * THERMODYNAMIC PROPERTIES FITTED TO 20000.K

 NOTE. WEIGHT FRACTION OF FUEL IN TOTAL FUELS AND OF OXIDANT IN TOTAL OXIDANTS










              THEORETICAL ROCKET PERFORMANCE ASSUMING EQUILIBRIUM

           COMPOSITION DURING EXPANSION FROM INFINITE AREA COMBUSTOR

 Pin =   580.2 PSIA
 CASE =                

             REACTANT                    WT FRACTION      ENERGY      TEMP
                                          (SEE NOTE)     KJ/KG-MOL      K  
 FUEL        C32H66(a)                    0.9000000   -967800.000    298.150
 FUEL        stearic                      0.1000000   -912000.000    298.150
 OXIDANT     N2O(L),298.15K               1.0000000     65100.000    298.150

 O/F=   11.00000  %FUEL=  8.333333  R,EQ.RATIO= 0.848299  PHI,EQ.RATIO= 0.847872

                 CHAMBER   THROAT     EXIT
 Pinf/P            1.0000   1.7400   45.602
 P, BAR            40.000   22.988  0.87716
 T, K             3178.59  2989.54  1897.70
 RHO, KG/CU M    4.2307 0 2.6118 0 1.6207-1
 H, KJ/KG         1168.15   662.77 -1649.65
 U, KJ/KG          222.69  -217.42 -2190.86
 G, KJ/KG        -28555.7 -27293.2 -19395.6
 S, KJ/(KG)(K)     9.3512   9.3512   9.3512

 M, (1/n)          27.953   28.240   29.154
 (dLV/dLP)t      -1.01514 -1.01211 -1.00024
 (dLV/dLT)p        1.3120   1.2666   1.0089
 Cp, KJ/(KG)(K)    3.5416   3.3426   1.5773
 GAMMAs            1.1487   1.1484   1.2252
 SON VEL,M/SEC     1042.1   1005.4    814.3
 MACH NUMBER        0.000    1.000    2.915

 PERFORMANCE PARAMETERS

 Ae/At                      1.0000   6.8247
 CSTAR, M/SEC               1523.3   1523.3
 CF                         0.6600   1.5584
 Ivac, M/SEC                1880.9   2601.9
 Isp, M/SEC                 1005.4   2373.9


 MOLE FRACTIONS

 *CO              0.04907  0.03801  0.00046
 *CO2             0.11446  0.12721  0.17010
 *H               0.00375  0.00250  0.00001
 HNO              0.00001  0.00000  0.00000
 HO2              0.00006  0.00004  0.00000
 *H2              0.00799  0.00613  0.00011
 H2O              0.14445  0.15148  0.17465
 *NO              0.02452  0.01961  0.00231
 NO2              0.00004  0.00003  0.00000
 *N2              0.56989  0.57834  0.60604
 N2O              0.00001  0.00000  0.00000
 *O               0.00720  0.00507  0.00007
 *OH              0.02765  0.02205  0.00128
 *O2              0.05088  0.04952  0.04496

  * THERMODYNAMIC PROPERTIES FITTED TO 20000.K

 NOTE. WEIGHT FRACTION OF FUEL IN TOTAL FUELS AND OF OXIDANT IN TOTAL OXIDANTS










              THEORETICAL ROCKET PERFORMANCE ASSUMING EQUILIBRIUM

           COMPOSITION DURING EXPANSION FROM INFINITE AREA COMBUSTOR

 Pin =   580.2 PSIA
 CASE =                

             REACTANT                    WT FRACTION      ENERGY      TEMP
                                          (SEE NOTE)     KJ/KG-MOL      K  
 FUEL        C32H66(a)                    0.9000000   -967800.000    298.150
 FUEL        stearic                      0.1000000   -912000.000    298.150
 OXIDANT     N2O(L),298.15K               1.0000000     65100.000    298.150

 O/F=   11.14290  %FUEL=  8.235265  R,EQ.RATIO= 0.837450  PHI,EQ.RATIO= 0.836999

                 CHAMBER   THROAT     EXIT
 Pinf/P            1.0000   1.7404   45.602
 P, BAR            40.000   22.983  0.87716
 T, K             3172.35  2982.61  1882.63
 RHO, KG/CU M    4.2449 0 2.6206 0 1.6339-1
 H, KJ/KG         1171.81   667.95 -1632.09
 U, KJ/KG          229.51  -209.07 -2168.93
 G, KJ/KG        -28446.5 -27178.9 -19209.1
 S, KJ/(KG)(K)     9.3364   9.3364   9.3364

 M, (1/n)          27.992   28.276   29.158
 (dLV/dLP)t      -1.01483 -1.01178 -1.00021
 (dLV/dLT)p        1.3062   1.2599   1.0078
 Cp, KJ/(KG)(K)    3.5057   3.2996   1.5630
 GAMMAs            1.1491   1.1490   1.2271
 SON VEL,M/SEC     1040.6   1003.8    811.6
 MACH NUMBER        0.000    1.000    2.918

 PERFORMANCE PARAMETERS

 Ae/At                      1.0000   6.7988
 CSTAR, M/SEC               1520.5   1520.5
 CF                         0.6602   1.5574
 Ivac, M/SEC                1877.5   2594.8
 Isp, M/SEC                 1003.8   2368.1


 MOLE FRACTIONS

 *CO              0.04722  0.03627  0.00038
 *CO2             0.11461  0.12721  0.16820
 *H               0.00360  0.00238  0.00001
 HNO              0.00001  0.00000  0.00000
 HO2              0.00006  0.00004  0.00000
 *H2              0.00763  0.00581  0.00009
 H2O              0.14323  0.15017  0.17268
 *NO              0.02486  0.01989  0.00229
 NO2              0.00004  0.00003  0.00000
 *N2              0.57115  0.57958  0.60679
 N2O              0.00001  0.00000  0.00000
 *O               0.00720  0.00505  0.00006
 *OH              0.02748  0.02187  0.00119
 *O2              0.05290  0.05168  0.04831

  * THERMODYNAMIC PROPERTIES FITTED TO 20000.K

 NOTE. WEIGHT FRACTION OF FUEL IN TOTAL FUELS AND OF OXIDANT IN TOTAL OXIDANTS










              THEORETICAL ROCKET PERFORMANCE ASSUMING EQUILIBRIUM

           COMPOSITION DURING EXPANSION FROM INFINITE AREA COMBUSTOR

 Pin =   580.2 PSIA
 CASE =                

             REACTANT                    WT FRACTION      ENERGY      TEMP
                                          (SEE NOTE)     KJ/KG-MOL      K  
 FUEL        C32H66(a)                    0.9000000   -967800.000    298.150
 FUEL        stearic                      0.1000000   -912000.000    298.150
 OXIDANT     N2O(L),298.15K               1.0000000     65100.000    298.150

 O/F=   11.28570  %FUEL=  8.139544  R,EQ.RATIO= 0.826882  PHI,EQ.RATIO= 0.826408

                 CHAMBER   THROAT     EXIT
 Pinf/P            1.0000   1.7409   45.602
 P, BAR            40.000   22.977  0.87716
 T, K             3166.03  2975.58  1867.89
 RHO, KG/CU M    4.2591 0 2.6293 0 1.6470-1
 H, KJ/KG         1175.38   673.04 -1614.74
 U, KJ/KG          236.21  -200.84 -2147.31
 G, KJ/KG        -28337.9 -27064.9 -19027.0
 S, KJ/(KG)(K)     9.3219   9.3219   9.3219

 M, (1/n)          28.029   28.311   29.162
 (dLV/dLP)t      -1.01452 -1.01145 -1.00019
 (dLV/dLT)p        1.3004   1.2533   1.0069
 Cp, KJ/(KG)(K)    3.4697   3.2566   1.5502
 GAMMAs            1.1495   1.1497   1.2289
 SON VEL,M/SEC     1039.0   1002.3    809.0
 MACH NUMBER        0.000    1.000    2.920

 PERFORMANCE PARAMETERS

 Ae/At                      1.0000   6.7737
 CSTAR, M/SEC               1517.8   1517.8
 CF                         0.6604   1.5564
 Ivac, M/SEC                1874.2   2587.7
 Isp, M/SEC                 1002.3   2362.3


 MOLE FRACTIONS

 *CO              0.04545  0.03461  0.00032
 *CO2             0.11471  0.12716  0.16632
 *H               0.00346  0.00227  0.00001
 HNO              0.00001  0.00000  0.00000
 HO2              0.00006  0.00004  0.00000
 *H2              0.00728  0.00551  0.00008
 H2O              0.14202  0.14887  0.17074
 *NO              0.02518  0.02014  0.00226
 NO2              0.00004  0.00003  0.00000
 *N2              0.57237  0.58079  0.60752
 N2O              0.00001  0.00000  0.00000
 *O               0.00719  0.00503  0.00005
 *OH              0.02728  0.02167  0.00111
 *O2              0.05490  0.05385  0.05159

  * THERMODYNAMIC PROPERTIES FITTED TO 20000.K

 NOTE. WEIGHT FRACTION OF FUEL IN TOTAL FUELS AND OF OXIDANT IN TOTAL OXIDANTS










              THEORETICAL ROCKET PERFORMANCE ASSUMING EQUILIBRIUM

           COMPOSITION DURING EXPANSION FROM INFINITE AREA COMBUSTOR

 Pin =   580.2 PSIA
 CASE =                

             REACTANT                    WT FRACTION      ENERGY      TEMP
                                          (SEE NOTE)     KJ/KG-MOL      K  
 FUEL        C32H66(a)                    0.9000000   -967800.000    298.150
 FUEL        stearic                      0.1000000   -912000.000    298.150
 OXIDANT     N2O(L),298.15K               1.0000000     65100.000    298.150

 O/F=   11.42860  %FUEL=  8.045959  R,EQ.RATIO= 0.816571  PHI,EQ.RATIO= 0.816075

                 CHAMBER   THROAT     EXIT
 Pinf/P            1.0000   1.7413   45.602
 P, BAR            40.000   22.971  0.87716
 T, K             3159.65  2968.45  1853.47
 RHO, KG/CU M    4.2732 0 2.6381 0 1.6601-1
 H, KJ/KG         1178.87   678.02 -1597.58
 U, KJ/KG          242.80  -192.75 -2125.97
 G, KJ/KG        -28229.7 -26951.0 -18848.9
 S, KJ/(KG)(K)     9.3076   9.3076   9.3076

 M, (1/n)          28.065   28.344   29.165
 (dLV/dLP)t      -1.01421 -1.01112 -1.00016
 (dLV/dLT)p        1.2945   1.2466   1.0061
 Cp, KJ/(KG)(K)    3.4335   3.2138   1.5386
 GAMMAs            1.1499   1.1504   1.2306
 SON VEL,M/SEC     1037.5   1000.9    806.4
 MACH NUMBER        0.000    1.000    2.922

 PERFORMANCE PARAMETERS

 Ae/At                      1.0000   6.7495
 CSTAR, M/SEC               1515.0   1515.0
 CF                         0.6606   1.5555
 Ivac, M/SEC                1870.9   2580.7
 Isp, M/SEC                 1000.9   2356.5


 MOLE FRACTIONS

 *CO              0.04375  0.03303  0.00026
 *CO2             0.11478  0.12707  0.16448
 *H               0.00332  0.00216  0.00000
 HNO              0.00001  0.00000  0.00000
 HO2              0.00006  0.00004  0.00000
 *H2              0.00696  0.00523  0.00007
 H2O              0.14083  0.14759  0.16884
 *NO              0.02549  0.02038  0.00223
 NO2              0.00004  0.00003  0.00000
 *N2              0.57357  0.58197  0.60823
 N2O              0.00001  0.00000  0.00000
 *O               0.00718  0.00501  0.00005
 *OH              0.02708  0.02145  0.00104
 *O2              0.05690  0.05601  0.05480

  * THERMODYNAMIC PROPERTIES FITTED TO 20000.K

 NOTE. WEIGHT FRACTION OF FUEL IN TOTAL FUELS AND OF OXIDANT IN TOTAL OXIDANTS










              THEORETICAL ROCKET PERFORMANCE ASSUMING EQUILIBRIUM

           COMPOSITION DURING EXPANSION FROM INFINITE AREA COMBUSTOR

 Pin =   580.2 PSIA
 CASE =                

             REACTANT                    WT FRACTION      ENERGY      TEMP
                                          (SEE NOTE)     KJ/KG-MOL      K  
 FUEL        C32H66(a)                    0.9000000   -967800.000    298.150
 FUEL        stearic                      0.1000000   -912000.000    298.150
 OXIDANT     N2O(L),298.15K               1.0000000     65100.000    298.150

 O/F=   11.57140  %FUEL=  7.954564  R,EQ.RATIO= 0.806521  PHI,EQ.RATIO= 0.806004

                 CHAMBER   THROAT     EXIT
 Pinf/P            1.0000   1.7418   45.602
 P, BAR            40.000   22.965  0.87716
 T, K             3153.21  2961.24  1839.37
 RHO, KG/CU M    4.2872 0 2.6468 0 1.6730-1
 H, KJ/KG         1182.28   682.89 -1580.65
 U, KJ/KG          249.28  -184.77 -2104.96
 G, KJ/KG        -28122.3 -26837.6 -18675.0
 S, KJ/(KG)(K)     9.2936   9.2936   9.2936

 M, (1/n)          28.100   28.376   29.169
 (dLV/dLP)t      -1.01390 -1.01080 -1.00014
 (dLV/dLT)p        1.2887   1.2400   1.0054
 Cp, KJ/(KG)(K)    3.3975   3.1713   1.5280
 GAMMAs            1.1504   1.1511   1.2322
 SON VEL,M/SEC     1036.0    999.4    803.8
 MACH NUMBER        0.000    1.000    2.925

 PERFORMANCE PARAMETERS

 Ae/At                      1.0000   6.7261
 CSTAR, M/SEC               1512.2   1512.2
 CF                         0.6609   1.5545
 Ivac, M/SEC                1867.6   2573.8
 Isp, M/SEC                  999.4   2350.7


 MOLE FRACTIONS

 *CO              0.04211  0.03153  0.00022
 *CO2             0.11481  0.12694  0.16267
 *H               0.00319  0.00206  0.00000
 HNO              0.00001  0.00000  0.00000
 HO2              0.00006  0.00004  0.00000
 *H2              0.00665  0.00496  0.00006
 H2O              0.13966  0.14634  0.16698
 *NO              0.02577  0.02061  0.00219
 NO2              0.00005  0.00003  0.00000
 *N2              0.57474  0.58312  0.60892
 N2O              0.00001  0.00000  0.00000
 *O               0.00716  0.00498  0.00005
 *OH              0.02687  0.02123  0.00096
 *O2              0.05890  0.05816  0.05795

  * THERMODYNAMIC PROPERTIES FITTED TO 20000.K

 NOTE. WEIGHT FRACTION OF FUEL IN TOTAL FUELS AND OF OXIDANT IN TOTAL OXIDANTS










              THEORETICAL ROCKET PERFORMANCE ASSUMING EQUILIBRIUM

           COMPOSITION DURING EXPANSION FROM INFINITE AREA COMBUSTOR

 Pin =   580.2 PSIA
 CASE =                

             REACTANT                    WT FRACTION      ENERGY      TEMP
                                          (SEE NOTE)     KJ/KG-MOL      K  
 FUEL        C32H66(a)                    0.9000000   -967800.000    298.150
 FUEL        stearic                      0.1000000   -912000.000    298.150
 OXIDANT     N2O(L),298.15K               1.0000000     65100.000    298.150

 O/F=   11.71430  %FUEL=  7.865160  R,EQ.RATIO= 0.796708  PHI,EQ.RATIO= 0.796171

                 CHAMBER   THROAT     EXIT
 Pinf/P            1.0000   1.7422   45.602
 P, BAR            40.000   22.959  0.87716
 T, K             3146.71  2953.96  1825.58
 RHO, KG/CU M    4.3012 0 2.6555 0 1.6858-1
 H, KJ/KG         1185.62   687.68 -1563.91
 U, KJ/KG          255.66  -176.92 -2084.24
 G, KJ/KG        -28015.3 -26724.5 -18505.0
 S, KJ/(KG)(K)     9.2798   9.2798   9.2798

 M, (1/n)          28.134   28.407   29.172
 (dLV/dLP)t      -1.01359 -1.01048 -1.00013
 (dLV/dLT)p        1.2828   1.2335   1.0049
 Cp, KJ/(KG)(K)    3.3615   3.1292   1.5183
 GAMMAs            1.1509   1.1519   1.2337
 SON VEL,M/SEC     1034.5    997.9    801.2
 MACH NUMBER        0.000    1.000    2.927

 PERFORMANCE PARAMETERS

 Ae/At                      1.0000   6.7035
 CSTAR, M/SEC               1509.4   1509.4
 CF                         0.6611   1.5536
 Ivac, M/SEC                1864.3   2566.9
 Isp, M/SEC                  997.9   2345.0


 MOLE FRACTIONS

 *CO              0.04054  0.03009  0.00019
 *CO2             0.11480  0.12677  0.16089
 *H               0.00307  0.00196  0.00000
 HNO              0.00001  0.00000  0.00000
 HO2              0.00007  0.00004  0.00000
 *H2              0.00636  0.00471  0.00005
 H2O              0.13850  0.14510  0.16516
 *NO              0.02604  0.02081  0.00215
 NO2              0.00005  0.00003  0.00000
 *N2              0.57588  0.58423  0.60959
 N2O              0.00001  0.00000  0.00000
 *O               0.00713  0.00494  0.00004
 *OH              0.02664  0.02099  0.00090
 *O2              0.06088  0.06030  0.06103

  * THERMODYNAMIC PROPERTIES FITTED TO 20000.K

 NOTE. WEIGHT FRACTION OF FUEL IN TOTAL FUELS AND OF OXIDANT IN TOTAL OXIDANTS










              THEORETICAL ROCKET PERFORMANCE ASSUMING EQUILIBRIUM

           COMPOSITION DURING EXPANSION FROM INFINITE AREA COMBUSTOR

 Pin =   580.2 PSIA
 CASE =                

             REACTANT                    WT FRACTION      ENERGY      TEMP
                                          (SEE NOTE)     KJ/KG-MOL      K  
 FUEL        C32H66(a)                    0.9000000   -967800.000    298.150
 FUEL        stearic                      0.1000000   -912000.000    298.150
 OXIDANT     N2O(L),298.15K               1.0000000     65100.000    298.150

 O/F=   11.85710  %FUEL=  7.777804  R,EQ.RATIO= 0.787138  PHI,EQ.RATIO= 0.786583

                 CHAMBER   THROAT     EXIT
 Pinf/P            1.0000   1.7427   45.602
 P, BAR            40.000   22.953  0.87716
 T, K             3140.18  2946.61  1812.11
 RHO, KG/CU M    4.3152 0 2.6641 0 1.6985-1
 H, KJ/KG         1188.88   692.36 -1547.41
 U, KJ/KG          261.92  -169.18 -2063.84
 G, KJ/KG        -27909.0 -26611.9 -18339.0
 S, KJ/(KG)(K)     9.2663   9.2663   9.2663

 M, (1/n)          28.166   28.437   29.174
 (dLV/dLP)t      -1.01328 -1.01016 -1.00011
 (dLV/dLT)p        1.2770   1.2270   1.0044
 Cp, KJ/(KG)(K)    3.3257   3.0876   1.5093
 GAMMAs            1.1514   1.1526   1.2351
 SON VEL,M/SEC     1033.1    996.5    798.7
 MACH NUMBER        0.000    1.000    2.929

 PERFORMANCE PARAMETERS

 Ae/At                      1.0000   6.6815
 CSTAR, M/SEC               1506.7   1506.7
 CF                         0.6614   1.5526
 Ivac, M/SEC                1861.1   2560.1
 Isp, M/SEC                  996.5   2339.4


 MOLE FRACTIONS

 *CO              0.03903  0.02872  0.00016
 *CO2             0.11477  0.12656  0.15915
 *H               0.00294  0.00187  0.00000
 HNO              0.00001  0.00000  0.00000
 HO2              0.00007  0.00004  0.00000
 *H2              0.00609  0.00448  0.00004
 H2O              0.13737  0.14388  0.16337
 *NO              0.02630  0.02100  0.00210
 NO2              0.00005  0.00003  0.00000
 *N2              0.57699  0.58532  0.61025
 N2O              0.00001  0.00000  0.00000
 *O               0.00710  0.00490  0.00004
 *OH              0.02641  0.02075  0.00083
 *O2              0.06286  0.06244  0.06405

  * THERMODYNAMIC PROPERTIES FITTED TO 20000.K

 NOTE. WEIGHT FRACTION OF FUEL IN TOTAL FUELS AND OF OXIDANT IN TOTAL OXIDANTS










              THEORETICAL ROCKET PERFORMANCE ASSUMING EQUILIBRIUM

           COMPOSITION DURING EXPANSION FROM INFINITE AREA COMBUSTOR

 Pin =   580.2 PSIA
 CASE =                

             REACTANT                    WT FRACTION      ENERGY      TEMP
                                          (SEE NOTE)     KJ/KG-MOL      K  
 FUEL        C32H66(a)                    0.9000000   -967800.000    298.150
 FUEL        stearic                      0.1000000   -912000.000    298.150
 OXIDANT     N2O(L),298.15K               1.0000000     65100.000    298.150

 O/F=   12.00000  %FUEL=  7.692308  R,EQ.RATIO= 0.777789  PHI,EQ.RATIO= 0.777216

                 CHAMBER   THROAT     EXIT
 Pinf/P            1.0000   1.7432   45.602
 P, BAR            40.000   22.946  0.87716
 T, K             3133.60  2939.20  1798.92
 RHO, KG/CU M    4.3291 0 2.6727 0 1.7111-1
 H, KJ/KG         1192.07   696.96 -1531.11
 U, KJ/KG          268.09  -161.56 -2043.74
 G, KJ/KG        -27803.4 -26499.7 -18176.6
 S, KJ/(KG)(K)     9.2531   9.2531   9.2531

 M, (1/n)          28.198   28.465   29.177
 (dLV/dLP)t      -1.01297 -1.00985 -1.00010
 (dLV/dLT)p        1.2712   1.2206   1.0039
 Cp, KJ/(KG)(K)    3.2902   3.0466   1.5009
 GAMMAs            1.1519   1.1534   1.2365
 SON VEL,M/SEC     1031.6    995.1    796.2
 MACH NUMBER        0.000    1.000    2.931

 PERFORMANCE PARAMETERS

 Ae/At                      1.0000   6.6603
 CSTAR, M/SEC               1504.0   1504.0
 CF                         0.6616   1.5517
 Ivac, M/SEC                1857.8   2553.4
 Isp, M/SEC                  995.1   2333.7


 MOLE FRACTIONS

 *CO              0.03758  0.02741  0.00013
 *CO2             0.11470  0.12631  0.15743
 *H               0.00283  0.00178  0.00000
 HNO              0.00001  0.00000  0.00000
 HO2              0.00007  0.00004  0.00000
 *H2              0.00582  0.00426  0.00004
 H2O              0.13624  0.14267  0.16162
 *NO              0.02654  0.02118  0.00206
 NO2              0.00005  0.00003  0.00000
 *N2              0.57808  0.58638  0.61090
 N2O              0.00001  0.00000  0.00000
 *O               0.00707  0.00485  0.00003
 *OH              0.02617  0.02050  0.00078
 *O2              0.06483  0.06457  0.06700

  * THERMODYNAMIC PROPERTIES FITTED TO 20000.K

 NOTE. WEIGHT FRACTION OF FUEL IN TOTAL FUELS AND OF OXIDANT IN TOTAL OXIDANTS



