
 *******************************************************************************

         NASA-GLENN CHEMICAL EQUILIBRIUM PROGRAM CEA2, MAY 21, 2004
                   BY  BONNIE MCBRIDE AND SANFORD GORDON
      REFS: NASA RP-1311, PART I, 1994 AND NASA RP-1311, PART II, 1996

 *******************************************************************************



 problem
 o/f=5.0000,5.1429,5.2857,5.4286,5.5714,
 5.7143,5.8571,6.0000,6.1429,6.2857,
 6.4286,6.5714,6.7143,6.8571,7.0000,
 7.1429,7.2857,7.4286,7.5714,7.7143,
 7.8571,8.0000,8.1429,8.2857,8.4286,
 8.5714,8.7143,8.8571,9.0000,9.1429,
 9.2857,9.4286,9.5714,9.7143,9.8571,
 10.0000,10.1429,10.2857,10.4286,10.5714,
 10.7143,10.8571,11.0000,11.1429,11.2857,
 11.4286,11.5714,11.7143,11.8571,12.0000,
     rocket  eql
   p,bar=35.0000,
   pi/p=39.9017,
 react
   fuel=C32H66(a) wt=0.900 t,k=298.150
   fuel=stearic wt=0.100 t,k=298.150
   h,kj/mol=-912.000 C 18 H 36 O 2
   oxid=N2O(L),298.15K wt=1.000 t,k=298.150
 output siunits short
 end





              THEORETICAL ROCKET PERFORMANCE ASSUMING EQUILIBRIUM

           COMPOSITION DURING EXPANSION FROM INFINITE AREA COMBUSTOR

 Pin =   507.6 PSIA
 CASE =                

             REACTANT                    WT FRACTION      ENERGY      TEMP
                                          (SEE NOTE)     KJ/KG-MOL      K  
 FUEL        C32H66(a)                    0.9000000   -967800.000    298.150
 FUEL        stearic                      0.1000000   -912000.000    298.150
 OXIDANT     N2O(L),298.15K               1.0000000     65100.000    298.150

 O/F=    5.00000  %FUEL= 16.666667  R,EQ.RATIO= 1.859996  PHI,EQ.RATIO= 1.865318

                 CHAMBER   THROAT     EXIT
 Pinf/P            1.0000   1.8005   39.902
 P, BAR            35.000   19.439  0.87716
 T, K             2812.75  2517.15  1313.85
 RHO, KG/CU M    3.4946 0 2.1737 0 1.8819-1
 H, KJ/KG          857.18   300.07 -1745.21
 U, KJ/KG         -144.36  -594.22 -2211.32
 G, KJ/KG        -28463.5 -25939.2 -15441.1
 S, KJ/(KG)(K)    10.4242  10.4242  10.4242

 M, (1/n)          23.351   23.403   23.437
 (dLV/dLP)t      -1.00189 -1.00074 -1.00001
 (dLV/dLT)p        1.0393   1.0168   1.0001
 Cp, KJ/(KG)(K)    2.0302   1.8539   1.6444
 GAMMAs            1.2308   1.2460   1.2751
 SON VEL,M/SEC     1110.3   1055.6    770.9
 MACH NUMBER        0.000    1.000    2.959

 PERFORMANCE PARAMETERS

 Ae/At                      1.0000   5.3443
 CSTAR, M/SEC               1525.4   1525.4
 CF                         0.6920   1.4956
 Ivac, M/SEC                1902.8   2485.7
 Isp, M/SEC                 1055.6   2281.4


 MOLE FRACTIONS

 *CO              0.23997  0.23803  0.20687
 *CO2             0.03323  0.03579  0.06736
 *H               0.00544  0.00234  0.00000
 *H2              0.14095  0.14452  0.17710
 H2O              0.13648  0.13565  0.10491
 NH3              0.00001  0.00001  0.00001
 *NO              0.00023  0.00005  0.00000
 *N2              0.44199  0.44307  0.44375
 *O               0.00004  0.00000  0.00000
 *OH              0.00163  0.00051  0.00000
 *O2              0.00001  0.00000  0.00000

  * THERMODYNAMIC PROPERTIES FITTED TO 20000.K

 NOTE. WEIGHT FRACTION OF FUEL IN TOTAL FUELS AND OF OXIDANT IN TOTAL OXIDANTS










              THEORETICAL ROCKET PERFORMANCE ASSUMING EQUILIBRIUM

           COMPOSITION DURING EXPANSION FROM INFINITE AREA COMBUSTOR

 Pin =   507.6 PSIA
 CASE =                

             REACTANT                    WT FRACTION      ENERGY      TEMP
                                          (SEE NOTE)     KJ/KG-MOL      K  
 FUEL        C32H66(a)                    0.9000000   -967800.000    298.150
 FUEL        stearic                      0.1000000   -912000.000    298.150
 OXIDANT     N2O(L),298.15K               1.0000000     65100.000    298.150

 O/F=    5.14290  %FUEL= 16.278956  R,EQ.RATIO= 1.808623  PHI,EQ.RATIO= 1.813489

                 CHAMBER   THROAT     EXIT
 Pinf/P            1.0000   1.7975   39.902
 P, BAR            35.000   19.471  0.87716
 T, K             2861.67  2568.05  1348.87
 RHO, KG/CU M    3.4700 0 2.1568 0 1.8532-1
 H, KJ/KG          871.65   311.50 -1760.69
 U, KJ/KG         -136.98  -591.28 -2234.01
 G, KJ/KG        -28854.6 -26364.7 -15772.4
 S, KJ/(KG)(K)    10.3877  10.3877  10.3877

 M, (1/n)          23.590   23.652   23.695
 (dLV/dLP)t      -1.00227 -1.00092 -1.00001
 (dLV/dLT)p        1.0470   1.0208   1.0000
 Cp, KJ/(KG)(K)    2.0772   1.8776   1.6367
 GAMMAs            1.2251   1.2410   1.2729
 SON VEL,M/SEC     1111.6   1058.4    776.2
 MACH NUMBER        0.000    1.000    2.956

 PERFORMANCE PARAMETERS

 Ae/At                      1.0000   5.3688
 CSTAR, M/SEC               1533.2   1533.2
 CF                         0.6904   1.4966
 Ivac, M/SEC                1911.4   2500.8
 Isp, M/SEC                 1058.4   2294.5


 MOLE FRACTIONS

 *CO              0.23343  0.23152  0.20099
 *CO2             0.03615  0.03878  0.06980
 *H               0.00618  0.00279  0.00000
 *H2              0.13002  0.13352  0.16565
 H2O              0.14304  0.14270  0.11284
 NH3              0.00001  0.00001  0.00000
 *NO              0.00034  0.00008  0.00000
 *N2              0.44855  0.44985  0.45071
 *O               0.00006  0.00001  0.00000
 *OH              0.00219  0.00073  0.00000
 *O2              0.00003  0.00000  0.00000

  * THERMODYNAMIC PROPERTIES FITTED TO 20000.K

 NOTE. WEIGHT FRACTION OF FUEL IN TOTAL FUELS AND OF OXIDANT IN TOTAL OXIDANTS










              THEORETICAL ROCKET PERFORMANCE ASSUMING EQUILIBRIUM

           COMPOSITION DURING EXPANSION FROM INFINITE AREA COMBUSTOR

 Pin =   507.6 PSIA
 CASE =                

             REACTANT                    WT FRACTION      ENERGY      TEMP
                                          (SEE NOTE)     KJ/KG-MOL      K  
 FUEL        C32H66(a)                    0.9000000   -967800.000    298.150
 FUEL        stearic                      0.1000000   -912000.000    298.150
 OXIDANT     N2O(L),298.15K               1.0000000     65100.000    298.150

 O/F=    5.28570  %FUEL= 15.909127  R,EQ.RATIO= 1.760046  PHI,EQ.RATIO= 1.764495

                 CHAMBER   THROAT     EXIT
 Pinf/P            1.0000   1.7945   39.902
 P, BAR            35.000   19.504  0.87716
 T, K             2907.33  2616.49  1383.02
 RHO, KG/CU M    3.4489 0 2.1421 0 1.8266-1
 H, KJ/KG          885.45   322.80 -1774.88
 U, KJ/KG         -129.38  -587.73 -2255.09
 G, KJ/KG        -29210.6 -26762.5 -16091.6
 S, KJ/(KG)(K)    10.3518  10.3518  10.3518

 M, (1/n)          23.820   23.892   23.946
 (dLV/dLP)t      -1.00270 -1.00113 -1.00000
 (dLV/dLT)p        1.0559   1.0254   1.0000
 Cp, KJ/(KG)(K)    2.1313   1.9059   1.6294
 GAMMAs            1.2193   1.2359   1.2708
 SON VEL,M/SEC     1112.4   1060.8    781.2
 MACH NUMBER        0.000    1.000    2.953

 PERFORMANCE PARAMETERS

 Ae/At                      1.0000   5.3932
 CSTAR, M/SEC               1540.3   1540.3
 CF                         0.6887   1.4975
 Ivac, M/SEC                1919.1   2514.8
 Isp, M/SEC                 1060.8   2306.7


 MOLE FRACTIONS

 *CO              0.22684  0.22494  0.19513
 *CO2             0.03919  0.04190  0.07231
 *H               0.00690  0.00326  0.00000
 *H2              0.11971  0.12306  0.15462
 H2O              0.14900  0.14922  0.12042
 NH3              0.00001  0.00001  0.00000
 *NO              0.00048  0.00013  0.00000
 *N2              0.45485  0.45642  0.45750
 *O               0.00009  0.00002  0.00000
 *OH              0.00287  0.00102  0.00000
 *O2              0.00005  0.00001  0.00000

  * THERMODYNAMIC PROPERTIES FITTED TO 20000.K

 NOTE. WEIGHT FRACTION OF FUEL IN TOTAL FUELS AND OF OXIDANT IN TOTAL OXIDANTS










              THEORETICAL ROCKET PERFORMANCE ASSUMING EQUILIBRIUM

           COMPOSITION DURING EXPANSION FROM INFINITE AREA COMBUSTOR

 Pin =   507.6 PSIA
 CASE =                

             REACTANT                    WT FRACTION      ENERGY      TEMP
                                          (SEE NOTE)     KJ/KG-MOL      K  
 FUEL        C32H66(a)                    0.9000000   -967800.000    298.150
 FUEL        stearic                      0.1000000   -912000.000    298.150
 OXIDANT     N2O(L),298.15K               1.0000000     65100.000    298.150

 O/F=    5.42860  %FUEL= 15.555486  R,EQ.RATIO= 1.713978  PHI,EQ.RATIO= 1.718047

                 CHAMBER   THROAT     EXIT
 Pinf/P            1.0000   1.7913   39.902
 P, BAR            35.000   19.538  0.87716
 T, K             2949.81  2662.56  1416.38
 RHO, KG/CU M    3.4308 0 2.1292 0 1.8018-1
 H, KJ/KG          898.65   334.03 -1787.89
 U, KJ/KG         -121.52  -583.59 -2274.71
 G, KJ/KG        -29532.6 -27133.9 -16399.8
 S, KJ/(KG)(K)    10.3164  10.3164  10.3164

 M, (1/n)          24.041   24.125   24.191
 (dLV/dLP)t      -1.00319 -1.00138 -1.00000
 (dLV/dLT)p        1.0659   1.0308   1.0000
 Cp, KJ/(KG)(K)    2.1932   1.9397   1.6225
 GAMMAs            1.2135   1.2306   1.2688
 SON VEL,M/SEC     1112.7   1062.7    785.9
 MACH NUMBER        0.000    1.000    2.949

 PERFORMANCE PARAMETERS

 Ae/At                     1.00000   5.4175
 CSTAR, M/SEC               1546.8   1546.8
 CF                         0.6870   1.4985
 Ivac, M/SEC                1926.2   2528.0
 Isp, M/SEC                 1062.7   2318.0


 MOLE FRACTIONS

 *CO              0.22020  0.21828  0.18926
 *CO2             0.04234  0.04518  0.07492
 *H               0.00758  0.00375  0.00000
 *H2              0.11001  0.11314  0.14401
 H2O              0.15435  0.15523  0.12768
 NH3              0.00001  0.00000  0.00000
 *NO              0.00067  0.00019  0.00000
 *N2              0.46092  0.46278  0.46413
 *O               0.00014  0.00003  0.00000
 *OH              0.00368  0.00139  0.00000
 *O2              0.00008  0.00001  0.00000

  * THERMODYNAMIC PROPERTIES FITTED TO 20000.K

 NOTE. WEIGHT FRACTION OF FUEL IN TOTAL FUELS AND OF OXIDANT IN TOTAL OXIDANTS










              THEORETICAL ROCKET PERFORMANCE ASSUMING EQUILIBRIUM

           COMPOSITION DURING EXPANSION FROM INFINITE AREA COMBUSTOR

 Pin =   507.6 PSIA
 CASE =                

             REACTANT                    WT FRACTION      ENERGY      TEMP
                                          (SEE NOTE)     KJ/KG-MOL      K  
 FUEL        C32H66(a)                    0.9000000   -967800.000    298.150
 FUEL        stearic                      0.1000000   -912000.000    298.150
 OXIDANT     N2O(L),298.15K               1.0000000     65100.000    298.150

 O/F=    5.57140  %FUEL= 15.217457  R,EQ.RATIO= 1.670289  PHI,EQ.RATIO= 1.674012

                 CHAMBER   THROAT     EXIT
 Pinf/P            1.0000   1.7881   39.902
 P, BAR            35.000   19.574  0.87716
 T, K             2989.06  2706.18  1448.98
 RHO, KG/CU M    3.4157 0 2.1183 0 1.7787-1
 H, KJ/KG          911.26   345.19 -1799.80
 U, KJ/KG         -113.42  -578.85 -2292.95
 G, KJ/KG        -29820.8 -27478.6 -16697.6
 S, KJ/(KG)(K)    10.2815  10.2815  10.2815

 M, (1/n)          24.254   24.350   24.430
 (dLV/dLP)t      -1.00375 -1.00167 -1.00000
 (dLV/dLT)p        1.0772   1.0370   1.0000
 Cp, KJ/(KG)(K)    2.2635   1.9797   1.6159
 GAMMAs            1.2077   1.2252   1.2668
 SON VEL,M/SEC     1112.4   1064.0    790.4
 MACH NUMBER        0.000    1.000    2.946

 PERFORMANCE PARAMETERS

 Ae/At                      1.0000   5.4420
 CSTAR, M/SEC               1552.8   1552.8
 CF                         0.6852   1.4995
 Ivac, M/SEC                1932.5   2540.3
 Isp, M/SEC                 1064.0   2328.5


 MOLE FRACTIONS

 *CO              0.21351  0.21153  0.18336
 *CO2             0.04560  0.04861  0.07764
 *H               0.00821  0.00424  0.00000
 *H2              0.10096  0.10379  0.13383
 H2O              0.15909  0.16069  0.13458
 NH3              0.00001  0.00000  0.00000
 *NO              0.00091  0.00028  0.00000
 *N2              0.46675  0.46892  0.47059
 *O               0.00021  0.00004  0.00000
 *OH              0.00462  0.00185  0.00000
 *O2              0.00013  0.00003  0.00000

  * THERMODYNAMIC PROPERTIES FITTED TO 20000.K

 NOTE. WEIGHT FRACTION OF FUEL IN TOTAL FUELS AND OF OXIDANT IN TOTAL OXIDANTS










              THEORETICAL ROCKET PERFORMANCE ASSUMING EQUILIBRIUM

           COMPOSITION DURING EXPANSION FROM INFINITE AREA COMBUSTOR

 Pin =   507.6 PSIA
 CASE =                

             REACTANT                    WT FRACTION      ENERGY      TEMP
                                          (SEE NOTE)     KJ/KG-MOL      K  
 FUEL        C32H66(a)                    0.9000000   -967800.000    298.150
 FUEL        stearic                      0.1000000   -912000.000    298.150
 OXIDANT     N2O(L),298.15K               1.0000000     65100.000    298.150

 O/F=    5.71430  %FUEL= 14.893585  R,EQ.RATIO= 1.628745  PHI,EQ.RATIO= 1.632149

                 CHAMBER   THROAT     EXIT
 Pinf/P            1.0000   1.7847   39.902
 P, BAR            35.000   19.611  0.87716
 T, K             3025.14  2747.41  1480.90
 RHO, KG/CU M    3.4033 0 2.1091 0 1.7570-1
 H, KJ/KG          923.35   356.32 -1810.66
 U, KJ/KG         -105.05  -573.49 -2309.91
 G, KJ/KG        -30076.2 -27797.3 -16986.0
 S, KJ/(KG)(K)    10.2473  10.2473  10.2473

 M, (1/n)          24.458   24.568   24.663
 (dLV/dLP)t      -1.00437 -1.00200 -1.00000
 (dLV/dLT)p        1.0900   1.0443   1.0001
 Cp, KJ/(KG)(K)    2.3430   2.0270   1.6097
 GAMMAs            1.2019   1.2197   1.2649
 SON VEL,M/SEC     1111.8   1064.9    794.7
 MACH NUMBER        0.000    1.000    2.943

 PERFORMANCE PARAMETERS

 Ae/At                      1.0000   5.4668
 CSTAR, M/SEC               1558.3   1558.3
 CF                         0.6834   1.5006
 Ivac, M/SEC                1938.0   2551.9
 Isp, M/SEC                 1064.9   2338.4


 MOLE FRACTIONS

 *CO              0.20678  0.20470  0.17741
 *CO2             0.04894  0.05218  0.08047
 *H               0.00878  0.00472  0.00001
 *H2              0.09254  0.09501  0.12406
 H2O              0.16322  0.16560  0.14114
 *NO              0.00121  0.00040  0.00000
 *N2              0.47233  0.47486  0.47691
 *O               0.00030  0.00007  0.00000
 *OH              0.00568  0.00241  0.00000
 *O2              0.00021  0.00005  0.00000

  * THERMODYNAMIC PROPERTIES FITTED TO 20000.K

 NOTE. WEIGHT FRACTION OF FUEL IN TOTAL FUELS AND OF OXIDANT IN TOTAL OXIDANTS










              THEORETICAL ROCKET PERFORMANCE ASSUMING EQUILIBRIUM

           COMPOSITION DURING EXPANSION FROM INFINITE AREA COMBUSTOR

 Pin =   507.6 PSIA
 CASE =                

             REACTANT                    WT FRACTION      ENERGY      TEMP
                                          (SEE NOTE)     KJ/KG-MOL      K  
 FUEL        C32H66(a)                    0.9000000   -967800.000    298.150
 FUEL        stearic                      0.1000000   -912000.000    298.150
 OXIDANT     N2O(L),298.15K               1.0000000     65100.000    298.150

 O/F=    5.85710  %FUEL= 14.583424  R,EQ.RATIO= 1.589243  PHI,EQ.RATIO= 1.592356

                 CHAMBER   THROAT     EXIT
 Pinf/P            1.0000   1.7813   39.902
 P, BAR            35.000   19.649  0.87716
 T, K             3058.02  2786.13  1512.16
 RHO, KG/CU M    3.3936 0 2.1016 0 1.7365-1
 H, KJ/KG          934.92   367.45 -1820.53
 U, KJ/KG         -96.434  -567.51 -2325.65
 G, KJ/KG        -30299.0 -28089.5 -17265.4
 S, KJ/(KG)(K)    10.2138  10.2138  10.2138

 M, (1/n)          24.653   24.777   24.891
 (dLV/dLP)t      -1.00507 -1.00238 -1.00000
 (dLV/dLT)p        1.1042   1.0528   1.0001
 Cp, KJ/(KG)(K)    2.4315   2.0825   1.6038
 GAMMAs            1.1962   1.2139   1.2631
 SON VEL,M/SEC     1110.7   1065.3    798.8
 MACH NUMBER        0.000    1.000    2.939

 PERFORMANCE PARAMETERS

 Ae/At                      1.0000   5.4921
 CSTAR, M/SEC               1563.3   1563.3
 CF                         0.6815   1.5017
 Ivac, M/SEC                1943.0   2562.7
 Isp, M/SEC                 1065.3   2347.5


 MOLE FRACTIONS

 *CO              0.20005  0.19779  0.17141
 *CO2             0.05234  0.05587  0.08343
 *H               0.00927  0.00519  0.00001
 *H2              0.08476  0.08680  0.11473
 H2O              0.16674  0.16994  0.14735
 *NO              0.00157  0.00056  0.00000
 *N2              0.47765  0.48057  0.48307
 *O               0.00042  0.00011  0.00000
 *OH              0.00684  0.00307  0.00000
 *O2              0.00032  0.00008  0.00000

  * THERMODYNAMIC PROPERTIES FITTED TO 20000.K

 NOTE. WEIGHT FRACTION OF FUEL IN TOTAL FUELS AND OF OXIDANT IN TOTAL OXIDANTS










              THEORETICAL ROCKET PERFORMANCE ASSUMING EQUILIBRIUM

           COMPOSITION DURING EXPANSION FROM INFINITE AREA COMBUSTOR

 Pin =   507.6 PSIA
 CASE =                

             REACTANT                    WT FRACTION      ENERGY      TEMP
                                          (SEE NOTE)     KJ/KG-MOL      K  
 FUEL        C32H66(a)                    0.9000000   -967800.000    298.150
 FUEL        stearic                      0.1000000   -912000.000    298.150
 OXIDANT     N2O(L),298.15K               1.0000000     65100.000    298.150

 O/F=    6.00000  %FUEL= 14.285714  R,EQ.RATIO= 1.551587  PHI,EQ.RATIO= 1.554432

                 CHAMBER   THROAT     EXIT
 Pinf/P            1.0000   1.7777   39.902
 P, BAR            35.000   19.689  0.87716
 T, K             3087.79  2822.34  1542.86
 RHO, KG/CU M    3.3863 0 2.0957 0 1.7172-1
 H, KJ/KG          946.03   378.59 -1829.46
 U, KJ/KG         -87.546  -560.89 -2340.26
 G, KJ/KG        -30490.2 -28355.2 -17537.0
 S, KJ/(KG)(K)    10.1808  10.1808  10.1808

 M, (1/n)          24.839   24.978   25.114
 (dLV/dLP)t      -1.00584 -1.00283 -1.00000
 (dLV/dLT)p        1.1199   1.0626   1.0001
 Cp, KJ/(KG)(K)    2.5292   2.1475   1.5983
 GAMMAs            1.1907   1.2080   1.2613
 SON VEL,M/SEC     1109.4   1065.3    802.7
 MACH NUMBER        0.000    1.000    2.935

 PERFORMANCE PARAMETERS

 Ae/At                     1.00000   5.5182
 CSTAR, M/SEC               1567.7   1567.7
 CF                         0.6796   1.5029
 Ivac, M/SEC                1947.2   2572.9
 Isp, M/SEC                 1065.3   2356.1


 MOLE FRACTIONS

 *CO              0.19332  0.19082  0.16535
 *CO2             0.05579  0.05968  0.08652
 *H               0.00968  0.00562  0.00001
 *H2              0.07761  0.07918  0.10581
 H2O              0.16968  0.17372  0.15321
 *NO              0.00199  0.00076  0.00000
 *N2              0.48274  0.48606  0.48909
 *O               0.00056  0.00016  0.00000
 *OH              0.00811  0.00385  0.00000
 *O2              0.00049  0.00014  0.00000

  * THERMODYNAMIC PROPERTIES FITTED TO 20000.K

 NOTE. WEIGHT FRACTION OF FUEL IN TOTAL FUELS AND OF OXIDANT IN TOTAL OXIDANTS










              THEORETICAL ROCKET PERFORMANCE ASSUMING EQUILIBRIUM

           COMPOSITION DURING EXPANSION FROM INFINITE AREA COMBUSTOR

 Pin =   507.6 PSIA
 CASE =                

             REACTANT                    WT FRACTION      ENERGY      TEMP
                                          (SEE NOTE)     KJ/KG-MOL      K  
 FUEL        C32H66(a)                    0.9000000   -967800.000    298.150
 FUEL        stearic                      0.1000000   -912000.000    298.150
 OXIDANT     N2O(L),298.15K               1.0000000     65100.000    298.150

 O/F=    6.14290  %FUEL= 13.999916  R,EQ.RATIO= 1.515674  PHI,EQ.RATIO= 1.518272

                 CHAMBER   THROAT     EXIT
 Pinf/P            1.0000   1.7740   39.902
 P, BAR            35.000   19.730  0.87716
 T, K             3114.48  2855.94  1573.00
 RHO, KG/CU M    3.3813 0 2.0914 0 1.6989-1
 H, KJ/KG          956.70   389.74 -1837.47
 U, KJ/KG         -78.404  -553.62 -2353.78
 G, KJ/KG        -30650.7 -28593.9 -17801.2
 S, KJ/(KG)(K)    10.1485  10.1485  10.1485

 M, (1/n)          25.017   25.171   25.331
 (dLV/dLP)t      -1.00669 -1.00335 -1.00000
 (dLV/dLT)p        1.1370   1.0740   1.0001
 Cp, KJ/(KG)(K)    2.6350   2.2228   1.5931
 GAMMAs            1.1854   1.2020   1.2596
 SON VEL,M/SEC     1107.7   1064.9    806.4
 MACH NUMBER        0.000    1.000    2.931

 PERFORMANCE PARAMETERS

 Ae/At                      1.0000   5.5453
 CSTAR, M/SEC               1571.6   1571.6
 CF                         0.6776   1.5042
 Ivac, M/SEC                1950.8   2582.4
 Isp, M/SEC                 1064.9   2364.0


 MOLE FRACTIONS

 *CO              0.18664  0.18381  0.15921
 *CO2             0.05924  0.06358  0.08977
 *H               0.01000  0.00601  0.00001
 *H2              0.07106  0.07213  0.09732
 H2O              0.17207  0.17692  0.15873
 *NO              0.00249  0.00102  0.00000
 *N2              0.48758  0.49133  0.49497
 *O               0.00074  0.00023  0.00000
 *OH              0.00946  0.00474  0.00000
 *O2              0.00070  0.00022  0.00000

  * THERMODYNAMIC PROPERTIES FITTED TO 20000.K

 NOTE. WEIGHT FRACTION OF FUEL IN TOTAL FUELS AND OF OXIDANT IN TOTAL OXIDANTS










              THEORETICAL ROCKET PERFORMANCE ASSUMING EQUILIBRIUM

           COMPOSITION DURING EXPANSION FROM INFINITE AREA COMBUSTOR

 Pin =   507.6 PSIA
 CASE =                

             REACTANT                    WT FRACTION      ENERGY      TEMP
                                          (SEE NOTE)     KJ/KG-MOL      K  
 FUEL        C32H66(a)                    0.9000000   -967800.000    298.150
 FUEL        stearic                      0.1000000   -912000.000    298.150
 OXIDANT     N2O(L),298.15K               1.0000000     65100.000    298.150

 O/F=    6.28570  %FUEL= 13.725517  R,EQ.RATIO= 1.481409  PHI,EQ.RATIO= 1.483779

                 CHAMBER   THROAT     EXIT
 Pinf/P            1.0000   1.7702   39.902
 P, BAR            35.000   19.771  0.87716
 T, K             3138.15  2886.82  1602.64
 RHO, KG/CU M    3.3785 0 2.0886 0 1.6815-1
 H, KJ/KG          966.94   400.88 -1844.59
 U, KJ/KG         -69.028  -545.73 -2366.24
 G, KJ/KG        -30781.6 -28804.9 -18058.4
 S, KJ/(KG)(K)    10.1170  10.1170  10.1170

 M, (1/n)          25.186   25.356   25.544
 (dLV/dLP)t      -1.00759 -1.00394 -1.00001
 (dLV/dLT)p        1.1553   1.0870   1.0002
 Cp, KJ/(KG)(K)    2.7476   2.3090   1.5883
 GAMMAs            1.1803   1.1960   1.2579
 SON VEL,M/SEC     1105.8   1064.0    810.0
 MACH NUMBER        0.000    1.000    2.927

 PERFORMANCE PARAMETERS

 Ae/At                      1.0000   5.5736
 CSTAR, M/SEC               1574.9   1574.9
 CF                         0.6756   1.5057
 Ivac, M/SEC                1953.7   2591.3
 Isp, M/SEC                 1064.0   2371.3


 MOLE FRACTIONS

 *CO              0.18002  0.17680  0.15299
 *CO2             0.06267  0.06753  0.09315
 *H               0.01024  0.00635  0.00002
 *H2              0.06511  0.06566  0.08924
 H2O              0.17393  0.17957  0.16389
 *NO              0.00305  0.00133  0.00000
 *N2              0.49218  0.49637  0.50071
 *O               0.00095  0.00031  0.00000
 *OH              0.01085  0.00572  0.00000
 *O2              0.00099  0.00034  0.00000

  * THERMODYNAMIC PROPERTIES FITTED TO 20000.K

 NOTE. WEIGHT FRACTION OF FUEL IN TOTAL FUELS AND OF OXIDANT IN TOTAL OXIDANTS










              THEORETICAL ROCKET PERFORMANCE ASSUMING EQUILIBRIUM

           COMPOSITION DURING EXPANSION FROM INFINITE AREA COMBUSTOR

 Pin =   507.6 PSIA
 CASE =                

             REACTANT                    WT FRACTION      ENERGY      TEMP
                                          (SEE NOTE)     KJ/KG-MOL      K  
 FUEL        C32H66(a)                    0.9000000   -967800.000    298.150
 FUEL        stearic                      0.1000000   -912000.000    298.150
 OXIDANT     N2O(L),298.15K               1.0000000     65100.000    298.150

 O/F=    6.42860  %FUEL= 13.461487  R,EQ.RATIO= 1.448637  PHI,EQ.RATIO= 1.450797

                 CHAMBER   THROAT     EXIT
 Pinf/P            1.0000   1.7665   39.902
 P, BAR            35.000   19.813  0.87716
 T, K             3158.98  2914.96  1631.85
 RHO, KG/CU M    3.3777 0 2.0873 0 1.6648-1
 H, KJ/KG          976.79   412.01 -1850.83
 U, KJ/KG         -59.429  -537.22 -2377.71
 G, KJ/KG        -30884.7 -28988.3 -18309.7
 S, KJ/(KG)(K)    10.0860  10.0860  10.0860

 M, (1/n)          25.347   25.533   25.752
 (dLV/dLP)t      -1.00855 -1.00461 -1.00001
 (dLV/dLT)p        1.1746   1.1017   1.0002
 Cp, KJ/(KG)(K)    2.8653   2.4064   1.5838
 GAMMAs            1.1757   1.1900   1.2562
 SON VEL,M/SEC     1103.7   1062.8    813.5
 MACH NUMBER        0.000    1.000    2.923

 PERFORMANCE PARAMETERS

 Ae/At                      1.0000   5.6033
 CSTAR, M/SEC               1577.7   1577.7
 CF                         0.6736   1.5073
 Ivac, M/SEC                1955.9   2599.6
 Isp, M/SEC                 1062.8   2378.1


 MOLE FRACTIONS

 *CO              0.17349  0.16980  0.14667
 *CO2             0.06605  0.07149  0.09670
 *H               0.01039  0.00664  0.00002
 *H2              0.05970  0.05975  0.08157
 H2O              0.17531  0.18168  0.16870
 *NO              0.00367  0.00170  0.00000
 *N2              0.49654  0.50117  0.50633
 *O               0.00119  0.00043  0.00000
 *OH              0.01228  0.00680  0.00000
 *O2              0.00136  0.00052  0.00000

  * THERMODYNAMIC PROPERTIES FITTED TO 20000.K

 NOTE. WEIGHT FRACTION OF FUEL IN TOTAL FUELS AND OF OXIDANT IN TOTAL OXIDANTS










              THEORETICAL ROCKET PERFORMANCE ASSUMING EQUILIBRIUM

           COMPOSITION DURING EXPANSION FROM INFINITE AREA COMBUSTOR

 Pin =   507.6 PSIA
 CASE =                

             REACTANT                    WT FRACTION      ENERGY      TEMP
                                          (SEE NOTE)     KJ/KG-MOL      K  
 FUEL        C32H66(a)                    0.9000000   -967800.000    298.150
 FUEL        stearic                      0.1000000   -912000.000    298.150
 OXIDANT     N2O(L),298.15K               1.0000000     65100.000    298.150

 O/F=    6.57140  %FUEL= 13.207597  R,EQ.RATIO= 1.417305  PHI,EQ.RATIO= 1.419270

                 CHAMBER   THROAT     EXIT
 Pinf/P            1.0000   1.7628   39.902
 P, BAR            35.000   19.854  0.87716
 T, K             3177.08  2940.30  1660.65
 RHO, KG/CU M    3.3787 0 2.0872 0 1.6488-1
 H, KJ/KG          986.26   423.08 -1856.20
 U, KJ/KG         -49.648  -528.15 -2388.19
 G, KJ/KG        -30961.7 -29143.8 -18555.3
 S, KJ/(KG)(K)    10.0557  10.0557  10.0557

 M, (1/n)          25.500   25.701   25.955
 (dLV/dLP)t      -1.00954 -1.00537 -1.00001
 (dLV/dLT)p        1.1946   1.1181   1.0003
 Cp, KJ/(KG)(K)    2.9855   2.5143   1.5797
 GAMMAs            1.1714   1.1841   1.2545
 SON VEL,M/SEC     1101.6   1061.3    816.9
 MACH NUMBER        0.000    1.000    2.919

 PERFORMANCE PARAMETERS

 Ae/At                      1.0000   5.6347
 CSTAR, M/SEC               1580.0   1580.0
 CF                         0.6717   1.5091
 Ivac, M/SEC                1957.6   2607.4
 Isp, M/SEC                 1061.3   2384.3


 MOLE FRACTIONS

 *CO              0.16708  0.16287  0.14026
 *CO2             0.06936  0.07543  0.10040
 *H               0.01046  0.00687  0.00003
 HO2              0.00001  0.00000  0.00000
 *H2              0.05482  0.05439  0.07431
 H2O              0.17625  0.18328  0.17317
 *NO              0.00434  0.00214  0.00000
 *N2              0.50068  0.50574  0.51182
 *O               0.00145  0.00057  0.00000
 *OH              0.01370  0.00795  0.00000
 *O2              0.00182  0.00076  0.00000

  * THERMODYNAMIC PROPERTIES FITTED TO 20000.K

 NOTE. WEIGHT FRACTION OF FUEL IN TOTAL FUELS AND OF OXIDANT IN TOTAL OXIDANTS










              THEORETICAL ROCKET PERFORMANCE ASSUMING EQUILIBRIUM

           COMPOSITION DURING EXPANSION FROM INFINITE AREA COMBUSTOR

 Pin =   507.6 PSIA
 CASE =                

             REACTANT                    WT FRACTION      ENERGY      TEMP
                                          (SEE NOTE)     KJ/KG-MOL      K  
 FUEL        C32H66(a)                    0.9000000   -967800.000    298.150
 FUEL        stearic                      0.1000000   -912000.000    298.150
 OXIDANT     N2O(L),298.15K               1.0000000     65100.000    298.150

 O/F=    6.71430  %FUEL= 12.962939  R,EQ.RATIO= 1.387279  PHI,EQ.RATIO= 1.389064

                 CHAMBER   THROAT     EXIT
 Pinf/P            1.0000   1.7593   39.902
 P, BAR            35.000   19.894  0.87716
 T, K             3192.66  2962.85  1689.11
 RHO, KG/CU M    3.3813 0 2.0884 0 1.6335-1
 H, KJ/KG          995.39   434.05 -1860.73
 U, KJ/KG         -39.706  -518.56 -2397.72
 G, KJ/KG        -31014.6 -29271.8 -18796.0
 S, KJ/(KG)(K)    10.0261  10.0261  10.0261

 M, (1/n)          25.645   25.860   26.153
 (dLV/dLP)t      -1.01054 -1.00619 -1.00001
 (dLV/dLT)p        1.2147   1.1361   1.0004
 Cp, KJ/(KG)(K)    3.1059   2.6315   1.5759
 GAMMAs            1.1675   1.1786   1.2529
 SON VEL,M/SEC     1099.3   1059.6    820.3
 MACH NUMBER        0.000    1.000    2.914

 PERFORMANCE PARAMETERS

 Ae/At                      1.0000   5.6680
 CSTAR, M/SEC               1581.7   1581.7
 CF                         0.6699   1.5110
 Ivac, M/SEC                1958.6   2614.7
 Isp, M/SEC                 1059.6   2390.0


 MOLE FRACTIONS

 *CO              0.16081  0.15603  0.13375
 *CO2             0.07257  0.07931  0.10426
 *H               0.01047  0.00703  0.00004
 HO2              0.00001  0.00000  0.00000
 *H2              0.05040  0.04953  0.06745
 H2O              0.17682  0.18440  0.17730
 *N               0.00001  0.00000  0.00000
 *NO              0.00507  0.00264  0.00000
 *N2              0.50460  0.51008  0.51719
 *O               0.00174  0.00073  0.00000
 *OH              0.01511  0.00916  0.00001
 *O2              0.00238  0.00108  0.00000

  * THERMODYNAMIC PROPERTIES FITTED TO 20000.K

 NOTE. WEIGHT FRACTION OF FUEL IN TOTAL FUELS AND OF OXIDANT IN TOTAL OXIDANTS










              THEORETICAL ROCKET PERFORMANCE ASSUMING EQUILIBRIUM

           COMPOSITION DURING EXPANSION FROM INFINITE AREA COMBUSTOR

 Pin =   507.6 PSIA
 CASE =                

             REACTANT                    WT FRACTION      ENERGY      TEMP
                                          (SEE NOTE)     KJ/KG-MOL      K  
 FUEL        C32H66(a)                    0.9000000   -967800.000    298.150
 FUEL        stearic                      0.1000000   -912000.000    298.150
 OXIDANT     N2O(L),298.15K               1.0000000     65100.000    298.150

 O/F=    6.85710  %FUEL= 12.727342  R,EQ.RATIO= 1.358519  PHI,EQ.RATIO= 1.360136

                 CHAMBER   THROAT     EXIT
 Pinf/P            1.0000   1.7560   39.902
 P, BAR            35.000   19.931  0.87716
 T, K             3205.88  2982.63  1717.24
 RHO, KG/CU M    3.3854 0 2.0906 0 1.6186-1
 H, KJ/KG         1004.18   444.86 -1864.40
 U, KJ/KG         -29.654  -508.54 -2406.31
 G, KJ/KG        -31045.6 -29373.1 -19032.0
 S, KJ/(KG)(K)     9.9972   9.9972   9.9972

 M, (1/n)          25.783   26.011   26.347
 (dLV/dLP)t      -1.01154 -1.00708 -1.00001
 (dLV/dLT)p        1.2347   1.1553   1.0004
 Cp, KJ/(KG)(K)    3.2239   2.7556   1.5725
 GAMMAs            1.1641   1.1733   1.2513
 SON VEL,M/SEC     1097.0   1057.7    823.5
 MACH NUMBER        0.000    1.000    2.909

 PERFORMANCE PARAMETERS

 Ae/At                      1.0000   5.7032
 CSTAR, M/SEC               1582.9   1582.9
 CF                         0.6682   1.5132
 Ivac, M/SEC                1959.1   2621.5
 Isp, M/SEC                 1057.7   2395.2


 MOLE FRACTIONS

 *CO              0.15471  0.14933  0.12714
 *CO2             0.07566  0.08309  0.10828
 *H               0.01041  0.00714  0.00005
 HO2              0.00001  0.00000  0.00000
 *H2              0.04642  0.04516  0.06099
 H2O              0.17704  0.18509  0.18110
 *N               0.00001  0.00000  0.00000
 *NO              0.00583  0.00319  0.00000
 *N2              0.50832  0.51418  0.52244
 *O               0.00204  0.00092  0.00000
 *OH              0.01648  0.01038  0.00001
 *O2              0.00305  0.00150  0.00000

  * THERMODYNAMIC PROPERTIES FITTED TO 20000.K

 NOTE. WEIGHT FRACTION OF FUEL IN TOTAL FUELS AND OF OXIDANT IN TOTAL OXIDANTS










              THEORETICAL ROCKET PERFORMANCE ASSUMING EQUILIBRIUM

           COMPOSITION DURING EXPANSION FROM INFINITE AREA COMBUSTOR

 Pin =   507.6 PSIA
 CASE =                

             REACTANT                    WT FRACTION      ENERGY      TEMP
                                          (SEE NOTE)     KJ/KG-MOL      K  
 FUEL        C32H66(a)                    0.9000000   -967800.000    298.150
 FUEL        stearic                      0.1000000   -912000.000    298.150
 OXIDANT     N2O(L),298.15K               1.0000000     65100.000    298.150

 O/F=    7.00000  %FUEL= 12.500000  R,EQ.RATIO= 1.330907  PHI,EQ.RATIO= 1.332370

                 CHAMBER   THROAT     EXIT
 Pinf/P            1.0000   1.7530   39.902
 P, BAR            35.000   19.966  0.87716
 T, K             3216.96  2999.77  1745.12
 RHO, KG/CU M    3.3909 0 2.0937 0 1.6043-1
 H, KJ/KG         1012.67   455.48 -1867.22
 U, KJ/KG         -19.514  -498.14 -2413.99
 G, KJ/KG        -31056.9 -29448.8 -19264.2
 S, KJ/(KG)(K)     9.9689   9.9689   9.9689

 M, (1/n)          25.914   26.155   26.538
 (dLV/dLP)t      -1.01251 -1.00802 -1.00002
 (dLV/dLT)p        1.2540   1.1753   1.0006
 Cp, KJ/(KG)(K)    3.3370   2.8839   1.5696
 GAMMAs            1.1610   1.1686   1.2497
 SON VEL,M/SEC     1094.7   1055.6    826.6
 MACH NUMBER        0.000    1.000    2.903

 PERFORMANCE PARAMETERS

 Ae/At                      1.0000   5.7406
 CSTAR, M/SEC               1583.6   1583.6
 CF                         0.6666   1.5155
 Ivac, M/SEC                1959.0   2627.8
 Isp, M/SEC                 1055.6   2400.0


 MOLE FRACTIONS

 *CO              0.14878  0.14279  0.12042
 *CO2             0.07862  0.08673  0.11246
 *H               0.01030  0.00718  0.00006
 HO2              0.00001  0.00000  0.00000
 *H2              0.04283  0.04124  0.05491
 H2O              0.17697  0.18540  0.18456
 *N               0.00001  0.00000  0.00000
 *NO              0.00663  0.00380  0.00000
 *N2              0.51185  0.51807  0.52758
 *O               0.00237  0.00114  0.00000
 *OH              0.01779  0.01161  0.00001
 *O2              0.00381  0.00202  0.00000

  * THERMODYNAMIC PROPERTIES FITTED TO 20000.K

 NOTE. WEIGHT FRACTION OF FUEL IN TOTAL FUELS AND OF OXIDANT IN TOTAL OXIDANTS










              THEORETICAL ROCKET PERFORMANCE ASSUMING EQUILIBRIUM

           COMPOSITION DURING EXPANSION FROM INFINITE AREA COMBUSTOR

 Pin =   507.6 PSIA
 CASE =                

             REACTANT                    WT FRACTION      ENERGY      TEMP
                                          (SEE NOTE)     KJ/KG-MOL      K  
 FUEL        C32H66(a)                    0.9000000   -967800.000    298.150
 FUEL        stearic                      0.1000000   -912000.000    298.150
 OXIDANT     N2O(L),298.15K               1.0000000     65100.000    298.150

 O/F=    7.14290  %FUEL= 12.280637  R,EQ.RATIO= 1.304396  PHI,EQ.RATIO= 1.305715

                 CHAMBER   THROAT     EXIT
 Pinf/P            1.0000   1.7502   39.902
 P, BAR            35.000   19.998  0.87716
 T, K             3226.10  3014.38  1772.77
 RHO, KG/CU M    3.3975 0 2.0977 0 1.5903-1
 H, KJ/KG         1020.85   465.90 -1869.19
 U, KJ/KG         -9.3300  -487.43 -2420.75
 G, KJ/KG        -31050.5 -29500.8 -19492.7
 S, KJ/(KG)(K)     9.9412   9.9412   9.9412

 M, (1/n)          26.038   26.290   26.723
 (dLV/dLP)t      -1.01344 -1.00897 -1.00002
 (dLV/dLT)p        1.2725   1.1957   1.0007
 Cp, KJ/(KG)(K)    3.4432   3.0130   1.5671
 GAMMAs            1.1584   1.1643   1.2481
 SON VEL,M/SEC     1092.4   1053.5    829.7
 MACH NUMBER        0.000    1.000    2.898

 PERFORMANCE PARAMETERS

 Ae/At                      1.0000   5.7800
 CSTAR, M/SEC               1583.8   1583.8
 CF                         0.6652   1.5180
 Ivac, M/SEC                1958.4   2633.6
 Isp, M/SEC                 1053.5   2404.2


 MOLE FRACTIONS

 *CO              0.14303  0.13644  0.11360
 *CO2             0.08144  0.09022  0.11680
 *H               0.01015  0.00718  0.00007
 HO2              0.00001  0.00000  0.00000
 *H2              0.03960  0.03773  0.04920
 H2O              0.17665  0.18537  0.18770
 *N               0.00001  0.00000  0.00000
 *NO              0.00745  0.00445  0.00000
 *N2              0.51520  0.52174  0.53261
 *O               0.00270  0.00137  0.00000
 *OH              0.01904  0.01282  0.00002
 *O2              0.00469  0.00266  0.00000

  * THERMODYNAMIC PROPERTIES FITTED TO 20000.K

 NOTE. WEIGHT FRACTION OF FUEL IN TOTAL FUELS AND OF OXIDANT IN TOTAL OXIDANTS










              THEORETICAL ROCKET PERFORMANCE ASSUMING EQUILIBRIUM

           COMPOSITION DURING EXPANSION FROM INFINITE AREA COMBUSTOR

 Pin =   507.6 PSIA
 CASE =                

             REACTANT                    WT FRACTION      ENERGY      TEMP
                                          (SEE NOTE)     KJ/KG-MOL      K  
 FUEL        C32H66(a)                    0.9000000   -967800.000    298.150
 FUEL        stearic                      0.1000000   -912000.000    298.150
 OXIDANT     N2O(L),298.15K               1.0000000     65100.000    298.150

 O/F=    7.28570  %FUEL= 12.068986  R,EQ.RATIO= 1.278938  PHI,EQ.RATIO= 1.280123

                 CHAMBER   THROAT     EXIT
 Pinf/P            1.0000   1.7478   39.902
 P, BAR            35.000   20.025  0.87716
 T, K             3233.48  3026.63  1800.19
 RHO, KG/CU M    3.4050 0 2.1022 0 1.5767-1
 H, KJ/KG         1028.75   476.03 -1870.30
 U, KJ/KG         0.85681  -476.54 -2426.61
 G, KJ/KG        -31028.7 -29530.7 -19717.8
 S, KJ/(KG)(K)     9.9142   9.9142   9.9142

 M, (1/n)          26.155   26.418   26.905
 (dLV/dLP)t      -1.01431 -1.00992 -1.00003
 (dLV/dLT)p        1.2897   1.2159   1.0009
 Cp, KJ/(KG)(K)    3.5409   3.1393   1.5652
 GAMMAs            1.1561   1.1605   1.2465
 SON VEL,M/SEC     1090.1   1051.4    832.7
 MACH NUMBER        0.000    1.000    2.892

 PERFORMANCE PARAMETERS

 Ae/At                      1.0000   5.8216
 CSTAR, M/SEC               1583.5   1583.5
 CF                         0.6640   1.5206
 Ivac, M/SEC                1957.4   2639.0
 Isp, M/SEC                 1051.4   2407.9


 MOLE FRACTIONS

 *CO              0.13749  0.13031  0.10668
 *CO2             0.08412  0.09353  0.12129
 *H               0.00997  0.00713  0.00008
 HO2              0.00001  0.00001  0.00000
 *H2              0.03668  0.03458  0.04387
 H2O              0.17612  0.18505  0.19052
 *N               0.00001  0.00000  0.00000
 *NO              0.00828  0.00514  0.00000
 *N2              0.51839  0.52522  0.53753
 *O               0.00303  0.00162  0.00000
 *OH              0.02021  0.01399  0.00003
 *O2              0.00567  0.00342  0.00000

  * THERMODYNAMIC PROPERTIES FITTED TO 20000.K

 NOTE. WEIGHT FRACTION OF FUEL IN TOTAL FUELS AND OF OXIDANT IN TOTAL OXIDANTS










              THEORETICAL ROCKET PERFORMANCE ASSUMING EQUILIBRIUM

           COMPOSITION DURING EXPANSION FROM INFINITE AREA COMBUSTOR

 Pin =   507.6 PSIA
 CASE =                

             REACTANT                    WT FRACTION      ENERGY      TEMP
                                          (SEE NOTE)     KJ/KG-MOL      K  
 FUEL        C32H66(a)                    0.9000000   -967800.000    298.150
 FUEL        stearic                      0.1000000   -912000.000    298.150
 OXIDANT     N2O(L),298.15K               1.0000000     65100.000    298.150

 O/F=    7.42860  %FUEL= 11.864367  R,EQ.RATIO= 1.254438  PHI,EQ.RATIO= 1.255498

                 CHAMBER   THROAT     EXIT
 Pinf/P            1.0000   1.7457   39.902
 P, BAR            35.000   20.049  0.87716
 T, K             3239.30  3036.72  1827.46
 RHO, KG/CU M    3.4134 0 2.1074 0 1.5635-1
 H, KJ/KG         1036.39   485.91 -1870.54
 U, KJ/KG          11.030  -465.48 -2431.57
 G, KJ/KG        -30993.3 -29540.7 -19940.2
 S, KJ/(KG)(K)     9.8879   9.8879   9.8879

 M, (1/n)          26.267   26.539   27.083
 (dLV/dLP)t      -1.01510 -1.01084 -1.00003
 (dLV/dLT)p        1.3054   1.2354   1.0011
 Cp, KJ/(KG)(K)    3.6291   3.2598   1.5640
 GAMMAs            1.1541   1.1572   1.2448
 SON VEL,M/SEC     1087.8   1049.3    835.7
 MACH NUMBER        0.000    1.000    2.885

 PERFORMANCE PARAMETERS

 Ae/At                      1.0000   5.8654
 CSTAR, M/SEC               1582.9   1582.9
 CF                         0.6629   1.5233
 Ivac, M/SEC                1956.0   2643.9
 Isp, M/SEC                 1049.3   2411.2


 MOLE FRACTIONS

 *CO              0.13214  0.12440  0.09965
 *CO2             0.08664  0.09665  0.12594
 *H               0.00975  0.00704  0.00009
 HO2              0.00002  0.00001  0.00000
 *H2              0.03405  0.03176  0.03890
 H2O              0.17542  0.18449  0.19304
 *N               0.00001  0.00000  0.00000
 *NO              0.00911  0.00585  0.00000
 *N2              0.52143  0.52851  0.54234
 *O               0.00336  0.00188  0.00000
 *OH              0.02129  0.01511  0.00004
 *O2              0.00676  0.00430  0.00000

  * THERMODYNAMIC PROPERTIES FITTED TO 20000.K

 NOTE. WEIGHT FRACTION OF FUEL IN TOTAL FUELS AND OF OXIDANT IN TOTAL OXIDANTS










              THEORETICAL ROCKET PERFORMANCE ASSUMING EQUILIBRIUM

           COMPOSITION DURING EXPANSION FROM INFINITE AREA COMBUSTOR

 Pin =   507.6 PSIA
 CASE =                

             REACTANT                    WT FRACTION      ENERGY      TEMP
                                          (SEE NOTE)     KJ/KG-MOL      K  
 FUEL        C32H66(a)                    0.9000000   -967800.000    298.150
 FUEL        stearic                      0.1000000   -912000.000    298.150
 OXIDANT     N2O(L),298.15K               1.0000000     65100.000    298.150

 O/F=    7.57140  %FUEL= 11.666706  R,EQ.RATIO= 1.230875  PHI,EQ.RATIO= 1.231819

                 CHAMBER   THROAT     EXIT
 Pinf/P            1.0000   1.7439   39.902
 P, BAR            35.000   20.070  0.87716
 T, K             3243.72  3044.84  1854.57
 RHO, KG/CU M    3.4226 0 2.1130 0 1.5505-1
 H, KJ/KG         1043.76   495.52 -1869.91
 U, KJ/KG          21.148  -454.33 -2435.62
 G, KJ/KG        -30946.1 -29532.9 -20159.9
 S, KJ/(KG)(K)     9.8621   9.8621   9.8621

 M, (1/n)          26.373   26.653   27.258
 (dLV/dLP)t      -1.01581 -1.01170 -1.00004
 (dLV/dLT)p        1.3195   1.2537   1.0014
 Cp, KJ/(KG)(K)    3.7068   3.3715   1.5636
 GAMMAs            1.1524   1.1544   1.2431
 SON VEL,M/SEC     1085.6   1047.1    838.6
 MACH NUMBER        0.000    1.000    2.879

 PERFORMANCE PARAMETERS

 Ae/At                      1.0000   5.9112
 CSTAR, M/SEC               1581.9   1581.9
 CF                         0.6620   1.5260
 Ivac, M/SEC                1954.2   2648.3
 Isp, M/SEC                 1047.1   2414.0


 MOLE FRACTIONS

 *CO              0.12699  0.11873  0.09253
 *CO2             0.08902  0.09957  0.13073
 *H               0.00951  0.00691  0.00011
 HNO              0.00001  0.00000  0.00000
 HO2              0.00002  0.00001  0.00000
 *H2              0.03166  0.02924  0.03427
 H2O              0.17457  0.18373  0.19525
 *N               0.00001  0.00000  0.00000
 *NO              0.00995  0.00658  0.00000
 NO2              0.00001  0.00000  0.00000
 *N2              0.52432  0.53163  0.54706
 *O               0.00369  0.00214  0.00000
 *OH              0.02229  0.01615  0.00005
 *O2              0.00794  0.00530  0.00000

  * THERMODYNAMIC PROPERTIES FITTED TO 20000.K

 NOTE. WEIGHT FRACTION OF FUEL IN TOTAL FUELS AND OF OXIDANT IN TOTAL OXIDANTS










              THEORETICAL ROCKET PERFORMANCE ASSUMING EQUILIBRIUM

           COMPOSITION DURING EXPANSION FROM INFINITE AREA COMBUSTOR

 Pin =   507.6 PSIA
 CASE =                

             REACTANT                    WT FRACTION      ENERGY      TEMP
                                          (SEE NOTE)     KJ/KG-MOL      K  
 FUEL        C32H66(a)                    0.9000000   -967800.000    298.150
 FUEL        stearic                      0.1000000   -912000.000    298.150
 OXIDANT     N2O(L),298.15K               1.0000000     65100.000    298.150

 O/F=    7.71430  %FUEL= 11.475391  R,EQ.RATIO= 1.208165  PHI,EQ.RATIO= 1.209000

                 CHAMBER   THROAT     EXIT
 Pinf/P            1.0000   1.7423   39.902
 P, BAR            35.000   20.088  0.87716
 T, K             3246.90  3051.19  1881.58
 RHO, KG/CU M    3.4324 0 2.1190 0 1.5379-1
 H, KJ/KG         1050.90   504.87 -1868.38
 U, KJ/KG          31.202  -443.13 -2438.76
 G, KJ/KG        -30888.6 -29509.5 -20377.3
 S, KJ/(KG)(K)     9.8369   9.8369   9.8369

 M, (1/n)          26.475   26.761   27.428
 (dLV/dLP)t      -1.01644 -1.01250 -1.00005
 (dLV/dLT)p        1.3319   1.2705   1.0017
 Cp, KJ/(KG)(K)    3.7741   3.4726   1.5642
 GAMMAs            1.1510   1.1520   1.2413
 SON VEL,M/SEC     1083.4   1045.0    841.4
 MACH NUMBER        0.000    1.000    2.872

 PERFORMANCE PARAMETERS

 Ae/At                     1.00000   5.9592
 CSTAR, M/SEC               1580.6   1580.6
 CF                         0.6612   1.5288
 Ivac, M/SEC                1952.2   2652.4
 Isp, M/SEC                 1045.0   2416.3


 MOLE FRACTIONS

 *CO              0.12203  0.11329  0.08531
 *CO2             0.09125  0.10230  0.13566
 *H               0.00926  0.00676  0.00013
 HNO              0.00001  0.00000  0.00000
 HO2              0.00002  0.00001  0.00000
 *H2              0.02950  0.02697  0.02997
 H2O              0.17360  0.18279  0.19718
 *N               0.00001  0.00000  0.00000
 *NO              0.01078  0.00731  0.00001
 NO2              0.00001  0.00000  0.00000
 *N2              0.52709  0.53459  0.55167
 *O               0.00402  0.00241  0.00000
 *OH              0.02321  0.01712  0.00008
 *O2              0.00921  0.00642  0.00000

  * THERMODYNAMIC PROPERTIES FITTED TO 20000.K

 NOTE. WEIGHT FRACTION OF FUEL IN TOTAL FUELS AND OF OXIDANT IN TOTAL OXIDANTS










              THEORETICAL ROCKET PERFORMANCE ASSUMING EQUILIBRIUM

           COMPOSITION DURING EXPANSION FROM INFINITE AREA COMBUSTOR

 Pin =   507.6 PSIA
 CASE =                

             REACTANT                    WT FRACTION      ENERGY      TEMP
                                          (SEE NOTE)     KJ/KG-MOL      K  
 FUEL        C32H66(a)                    0.9000000   -967800.000    298.150
 FUEL        stearic                      0.1000000   -912000.000    298.150
 OXIDANT     N2O(L),298.15K               1.0000000     65100.000    298.150

 O/F=    7.85710  %FUEL= 11.290377  R,EQ.RATIO= 1.186293  PHI,EQ.RATIO= 1.187027

                 CHAMBER   THROAT     EXIT
 Pinf/P            1.0000   1.7410   39.902
 P, BAR            35.000   20.103  0.87716
 T, K             3248.98  3055.97  1908.47
 RHO, KG/CU M    3.4427 0 2.1253 0 1.5254-1
 H, KJ/KG         1057.81   513.95 -1865.94
 U, KJ/KG          41.158  -431.92 -2440.97
 G, KJ/KG        -30822.3 -29472.4 -20592.5
 S, KJ/(KG)(K)     9.8124   9.8124   9.8124

 M, (1/n)          26.571   26.863   27.595
 (dLV/dLP)t      -1.01698 -1.01321 -1.00007
 (dLV/dLT)p        1.3427   1.2855   1.0022
 Cp, KJ/(KG)(K)    3.8309   3.5615   1.5661
 GAMMAs            1.1498   1.1500   1.2394
 SON VEL,M/SEC     1081.2   1042.9    844.2
 MACH NUMBER        0.000    1.000    2.864

 PERFORMANCE PARAMETERS

 Ae/At                      1.0000   6.0092
 CSTAR, M/SEC               1579.0   1579.0
 CF                         0.6605   1.5314
 Ivac, M/SEC                1949.9   2656.0
 Isp, M/SEC                 1042.9   2418.2


 MOLE FRACTIONS

 *CO              0.11727  0.10809  0.07802
 *CO2             0.09333  0.10483  0.14071
 *H               0.00899  0.00659  0.00015
 HNO              0.00001  0.00000  0.00000
 HO2              0.00002  0.00001  0.00000
 *H2              0.02753  0.02494  0.02600
 H2O              0.17253  0.18173  0.19882
 *N               0.00001  0.00000  0.00000
 *NO              0.01161  0.00805  0.00001
 NO2              0.00001  0.00000  0.00000
 *N2              0.52974  0.53740  0.55618
 *O               0.00433  0.00267  0.00000
 *OH              0.02404  0.01801  0.00011
 *O2              0.01057  0.00766  0.00000

  * THERMODYNAMIC PROPERTIES FITTED TO 20000.K

 NOTE. WEIGHT FRACTION OF FUEL IN TOTAL FUELS AND OF OXIDANT IN TOTAL OXIDANTS










              THEORETICAL ROCKET PERFORMANCE ASSUMING EQUILIBRIUM

           COMPOSITION DURING EXPANSION FROM INFINITE AREA COMBUSTOR

 Pin =   507.6 PSIA
 CASE =                

             REACTANT                    WT FRACTION      ENERGY      TEMP
                                          (SEE NOTE)     KJ/KG-MOL      K  
 FUEL        C32H66(a)                    0.9000000   -967800.000    298.150
 FUEL        stearic                      0.1000000   -912000.000    298.150
 OXIDANT     N2O(L),298.15K               1.0000000     65100.000    298.150

 O/F=    8.00000  %FUEL= 11.111111  R,EQ.RATIO= 1.165185  PHI,EQ.RATIO= 1.165824

                 CHAMBER   THROAT     EXIT
 Pinf/P            1.0000   1.7400   39.902
 P, BAR            35.000   20.115  0.87716
 T, K             3250.09  3059.36  1935.27
 RHO, KG/CU M    3.4534 0 2.1320 0 1.5132-1
 H, KJ/KG         1064.49   522.78 -1862.55
 U, KJ/KG          51.014  -420.74 -2442.22
 G, KJ/KG        -30748.5 -29423.3 -20805.7
 S, KJ/(KG)(K)     9.7883   9.7883   9.7883

 M, (1/n)          26.663   26.960   27.758
 (dLV/dLP)t      -1.01743 -1.01383 -1.00009
 (dLV/dLT)p        1.3517   1.2986   1.0028
 Cp, KJ/(KG)(K)    3.8775   3.6376   1.5699
 GAMMAs            1.1488   1.1483   1.2373
 SON VEL,M/SEC     1079.0   1040.9    846.9
 MACH NUMBER        0.000    1.000    2.857

 PERFORMANCE PARAMETERS

 Ae/At                      1.0000   6.0612
 CSTAR, M/SEC               1577.2   1577.2
 CF                         0.6600   1.5341
 Ivac, M/SEC                1947.3   2659.1
 Isp, M/SEC                 1040.9   2419.5


 MOLE FRACTIONS

 *CO              0.11270  0.10313  0.07065
 *CO2             0.09528  0.10717  0.14588
 *H               0.00872  0.00641  0.00016
 HNO              0.00001  0.00000  0.00000
 HO2              0.00002  0.00001  0.00000
 *H2              0.02574  0.02310  0.02233
 H2O              0.17139  0.18055  0.20020
 *N               0.00001  0.00000  0.00000
 *NO              0.01242  0.00878  0.00002
 NO2              0.00001  0.00000  0.00000
 *N2              0.53227  0.54009  0.56060
 *O               0.00463  0.00292  0.00000
 *OH              0.02478  0.01882  0.00015
 *O2              0.01201  0.00900  0.00000

  * THERMODYNAMIC PROPERTIES FITTED TO 20000.K

 NOTE. WEIGHT FRACTION OF FUEL IN TOTAL FUELS AND OF OXIDANT IN TOTAL OXIDANTS










              THEORETICAL ROCKET PERFORMANCE ASSUMING EQUILIBRIUM

           COMPOSITION DURING EXPANSION FROM INFINITE AREA COMBUSTOR

 Pin =   507.6 PSIA
 CASE =                

             REACTANT                    WT FRACTION      ENERGY      TEMP
                                          (SEE NOTE)     KJ/KG-MOL      K  
 FUEL        C32H66(a)                    0.9000000   -967800.000    298.150
 FUEL        stearic                      0.1000000   -912000.000    298.150
 OXIDANT     N2O(L),298.15K               1.0000000     65100.000    298.150

 O/F=    8.14290  %FUEL= 10.937449  R,EQ.RATIO= 1.144814  PHI,EQ.RATIO= 1.145365

                 CHAMBER   THROAT     EXIT
 Pinf/P            1.0000   1.7391   39.902
 P, BAR            35.000   20.125  0.87716
 T, K             3250.33  3061.50  1961.98
 RHO, KG/CU M    3.4646 0 2.1388 0 1.5012-1
 H, KJ/KG         1070.98   531.36 -1858.18
 U, KJ/KG          60.750  -409.61 -2442.49
 G, KJ/KG        -30668.2 -29363.8 -21016.7
 S, KJ/(KG)(K)     9.7649   9.7649   9.7649

 M, (1/n)          26.751   27.052   27.918
 (dLV/dLP)t      -1.01780 -1.01436 -1.00011
 (dLV/dLT)p        1.3592   1.3097   1.0037
 Cp, KJ/(KG)(K)    3.9145   3.7007   1.5763
 GAMMAs            1.1479   1.1469   1.2349
 SON VEL,M/SEC     1076.9   1038.9    849.4
 MACH NUMBER        0.000    1.000    2.849

 PERFORMANCE PARAMETERS

 Ae/At                      1.0000   6.1151
 CSTAR, M/SEC               1575.2   1575.2
 CF                         0.6595   1.5365
 Ivac, M/SEC                1944.6   2661.8
 Isp, M/SEC                 1038.9   2420.4


 MOLE FRACTIONS

 *CO              0.10832  0.09839  0.06322
 *CO2             0.09709  0.10933  0.15115
 *H               0.00844  0.00621  0.00018
 HNO              0.00001  0.00000  0.00000
 HO2              0.00003  0.00001  0.00000
 *H2              0.02410  0.02144  0.01896
 H2O              0.17018  0.17929  0.20131
 *N               0.00001  0.00000  0.00000
 *NO              0.01321  0.00950  0.00003
 NO2              0.00001  0.00001  0.00000
 *N2              0.53471  0.54265  0.56493
 *O               0.00491  0.00317  0.00000
 *OH              0.02545  0.01955  0.00021
 *O2              0.01352  0.01044  0.00001

  * THERMODYNAMIC PROPERTIES FITTED TO 20000.K

 NOTE. WEIGHT FRACTION OF FUEL IN TOTAL FUELS AND OF OXIDANT IN TOTAL OXIDANTS










              THEORETICAL ROCKET PERFORMANCE ASSUMING EQUILIBRIUM

           COMPOSITION DURING EXPANSION FROM INFINITE AREA COMBUSTOR

 Pin =   507.6 PSIA
 CASE =                

             REACTANT                    WT FRACTION      ENERGY      TEMP
                                          (SEE NOTE)     KJ/KG-MOL      K  
 FUEL        C32H66(a)                    0.9000000   -967800.000    298.150
 FUEL        stearic                      0.1000000   -912000.000    298.150
 OXIDANT     N2O(L),298.15K               1.0000000     65100.000    298.150

 O/F=    8.28570  %FUEL= 10.769247  R,EQ.RATIO= 1.125158  PHI,EQ.RATIO= 1.125625

                 CHAMBER   THROAT     EXIT
 Pinf/P            1.0000   1.7384   39.902
 P, BAR            35.000   20.134  0.87716
 T, K             3249.82  3062.55  1988.52
 RHO, KG/CU M    3.4760 0 2.1458 0 1.4894-1
 H, KJ/KG         1077.25   539.71 -1852.78
 U, KJ/KG          70.349  -398.56 -2441.71
 G, KJ/KG        -30582.4 -29295.6 -21224.9
 S, KJ/(KG)(K)     9.7420   9.7420   9.7420

 M, (1/n)          26.835   27.139   28.074
 (dLV/dLP)t      -1.01810 -1.01479 -1.00015
 (dLV/dLT)p        1.3651   1.3188   1.0049
 Cp, KJ/(KG)(K)    3.9426   3.7511   1.5867
 GAMMAs            1.1472   1.1458   1.2321
 SON VEL,M/SEC     1074.8   1036.9    851.8
 MACH NUMBER        0.000    1.000    2.842

 PERFORMANCE PARAMETERS

 Ae/At                     1.00000   6.1709
 CSTAR, M/SEC               1573.1   1573.1
 CF                         0.6591   1.5389
 Ivac, M/SEC                1941.8   2664.0
 Isp, M/SEC                 1036.9   2420.8


 MOLE FRACTIONS

 *CO              0.10411  0.09387  0.05575
 *CO2             0.09878  0.11131  0.15650
 *H               0.00817  0.00601  0.00020
 HNO              0.00001  0.00000  0.00000
 HO2              0.00003  0.00002  0.00000
 *H2              0.02261  0.01994  0.01587
 H2O              0.16892  0.17797  0.20218
 *N               0.00001  0.00000  0.00000
 *NO              0.01398  0.01021  0.00005
 NO2              0.00001  0.00001  0.00000
 *N2              0.53705  0.54509  0.56915
 *O               0.00519  0.00340  0.00000
 *OH              0.02604  0.02019  0.00029
 *O2              0.01510  0.01197  0.00001

  * THERMODYNAMIC PROPERTIES FITTED TO 20000.K

 NOTE. WEIGHT FRACTION OF FUEL IN TOTAL FUELS AND OF OXIDANT IN TOTAL OXIDANTS










              THEORETICAL ROCKET PERFORMANCE ASSUMING EQUILIBRIUM

           COMPOSITION DURING EXPANSION FROM INFINITE AREA COMBUSTOR

 Pin =   507.6 PSIA
 CASE =                

             REACTANT                    WT FRACTION      ENERGY      TEMP
                                          (SEE NOTE)     KJ/KG-MOL      K  
 FUEL        C32H66(a)                    0.9000000   -967800.000    298.150
 FUEL        stearic                      0.1000000   -912000.000    298.150
 OXIDANT     N2O(L),298.15K               1.0000000     65100.000    298.150

 O/F=    8.42860  %FUEL= 10.606028  R,EQ.RATIO= 1.106151  PHI,EQ.RATIO= 1.106541

                 CHAMBER   THROAT     EXIT
 Pinf/P            1.0000   1.7378   39.902
 P, BAR            35.000   20.140  0.87716
 T, K             3248.62  3062.63  2014.85
 RHO, KG/CU M    3.4877 0 2.1530 0 1.4779-1
 H, KJ/KG         1083.34   547.83 -1846.29
 U, KJ/KG          79.817  -387.61 -2439.79
 G, KJ/KG        -30492.0 -29219.7 -21429.8
 S, KJ/(KG)(K)     9.7196   9.7196   9.7196

 M, (1/n)          26.916   27.222   28.226
 (dLV/dLP)t      -1.01831 -1.01513 -1.00021
 (dLV/dLT)p        1.3695   1.3260   1.0068
 Cp, KJ/(KG)(K)    3.9623   3.7893   1.6037
 GAMMAs            1.1467   1.1449   1.2285
 SON VEL,M/SEC     1072.7   1034.9    853.9
 MACH NUMBER        0.000    1.000    2.835

 PERFORMANCE PARAMETERS

 Ae/At                      1.0000   6.2284
 CSTAR, M/SEC               1570.8   1570.8
 CF                         0.6588   1.5410
 Ivac, M/SEC                1938.8   2665.8
 Isp, M/SEC                 1034.9   2420.6


 MOLE FRACTIONS

 *CO              0.10007  0.08956  0.04827
 *CO2             0.10034  0.11313  0.16191
 *H               0.00789  0.00580  0.00022
 HNO              0.00001  0.00000  0.00000
 HO2              0.00003  0.00002  0.00000
 *H2              0.02123  0.01857  0.01304
 H2O              0.16762  0.17659  0.20280
 *N               0.00001  0.00000  0.00000
 *NO              0.01473  0.01091  0.00008
 NO2              0.00001  0.00001  0.00000
 *N2              0.53930  0.54744  0.57326
 *O               0.00544  0.00363  0.00000
 *OH              0.02656  0.02076  0.00040
 *O2              0.01674  0.01359  0.00003

  * THERMODYNAMIC PROPERTIES FITTED TO 20000.K

 NOTE. WEIGHT FRACTION OF FUEL IN TOTAL FUELS AND OF OXIDANT IN TOTAL OXIDANTS










              THEORETICAL ROCKET PERFORMANCE ASSUMING EQUILIBRIUM

           COMPOSITION DURING EXPANSION FROM INFINITE AREA COMBUSTOR

 Pin =   507.6 PSIA
 CASE =                

             REACTANT                    WT FRACTION      ENERGY      TEMP
                                          (SEE NOTE)     KJ/KG-MOL      K  
 FUEL        C32H66(a)                    0.9000000   -967800.000    298.150
 FUEL        stearic                      0.1000000   -912000.000    298.150
 OXIDANT     N2O(L),298.15K               1.0000000     65100.000    298.150

 O/F=    8.57140  %FUEL= 10.447792  R,EQ.RATIO= 1.087789  PHI,EQ.RATIO= 1.088106

                 CHAMBER   THROAT     EXIT
 Pinf/P            1.0000   1.7374   39.902
 P, BAR            35.000   20.145  0.87716
 T, K             3246.83  3061.87  2040.69
 RHO, KG/CU M    3.4996 0 2.1603 0 1.4668-1
 H, KJ/KG         1089.25   555.74 -1838.62
 U, KJ/KG          89.135  -376.77 -2436.61
 G, KJ/KG        -30397.7 -29137.4 -21628.7
 S, KJ/(KG)(K)     9.6977   9.6977   9.6977

 M, (1/n)          26.993   27.301   28.374
 (dLV/dLP)t      -1.01846 -1.01537 -1.00030
 (dLV/dLT)p        1.3727   1.3313   1.0099
 Cp, KJ/(KG)(K)    3.9746   3.8163   1.6323
 GAMMAs            1.1462   1.1442   1.2237
 SON VEL,M/SEC     1070.7   1033.0    855.4
 MACH NUMBER        0.000    1.000    2.829

 PERFORMANCE PARAMETERS

 Ae/At                      1.0000   6.2869
 CSTAR, M/SEC               1568.4   1568.4
 CF                         0.6586   1.5429
 Ivac, M/SEC                1935.7   2667.0
 Isp, M/SEC                 1033.0   2419.9


 MOLE FRACTIONS

 *CO              0.09620  0.08546  0.04081
 *CO2             0.10178  0.11478  0.16731
 *H               0.00762  0.00559  0.00023
 HNO              0.00001  0.00000  0.00000
 HO2              0.00003  0.00002  0.00000
 *H2              0.01997  0.01733  0.01048
 H2O              0.16630  0.17517  0.20316
 *N               0.00001  0.00000  0.00000
 *NO              0.01546  0.01158  0.00013
 NO2              0.00001  0.00001  0.00000
 *N2              0.54147  0.54968  0.57726
 *O               0.00568  0.00384  0.00001
 *OH              0.02701  0.02126  0.00055
 *O2              0.01843  0.01528  0.00006

  * THERMODYNAMIC PROPERTIES FITTED TO 20000.K

 NOTE. WEIGHT FRACTION OF FUEL IN TOTAL FUELS AND OF OXIDANT IN TOTAL OXIDANTS










              THEORETICAL ROCKET PERFORMANCE ASSUMING EQUILIBRIUM

           COMPOSITION DURING EXPANSION FROM INFINITE AREA COMBUSTOR

 Pin =   507.6 PSIA
 CASE =                

             REACTANT                    WT FRACTION      ENERGY      TEMP
                                          (SEE NOTE)     KJ/KG-MOL      K  
 FUEL        C32H66(a)                    0.9000000   -967800.000    298.150
 FUEL        stearic                      0.1000000   -912000.000    298.150
 OXIDANT     N2O(L),298.15K               1.0000000     65100.000    298.150

 O/F=    8.71430  %FUEL= 10.294103  R,EQ.RATIO= 1.070014  PHI,EQ.RATIO= 1.070263

                 CHAMBER   THROAT     EXIT
 Pinf/P            1.0000   1.7370   39.902
 P, BAR            35.000   20.149  0.87716
 T, K             3244.50  3060.35  2065.57
 RHO, KG/CU M    3.5117 0 2.1678 0 1.4564-1
 H, KJ/KG         1094.98   563.44 -1829.66
 U, KJ/KG          98.311  -366.04 -2431.93
 G, KJ/KG        -30300.0 -29049.6 -21816.9
 S, KJ/(KG)(K)     9.6764   9.6764   9.6764

 M, (1/n)          27.067   27.376   28.516
 (dLV/dLP)t      -1.01855 -1.01554 -1.00046
 (dLV/dLT)p        1.3747   1.3350   1.0153
 Cp, KJ/(KG)(K)    3.9800   3.8330   1.6826
 GAMMAs            1.1459   1.1437   1.2168
 SON VEL,M/SEC     1068.7   1031.1    856.1
 MACH NUMBER        0.000    1.000    2.825

 PERFORMANCE PARAMETERS

 Ae/At                      1.0000   6.3454
 CSTAR, M/SEC               1565.9   1565.9
 CF                         0.6584   1.5445
 Ivac, M/SEC                1932.5   2667.6
 Isp, M/SEC                 1031.1   2418.5


 MOLE FRACTIONS

 *CO              0.09249  0.08155  0.03345
 *CO2             0.10312  0.11629  0.17263
 *H               0.00735  0.00538  0.00024
 HNO              0.00001  0.00000  0.00000
 HO2              0.00004  0.00002  0.00000
 *H2              0.01881  0.01619  0.00818
 H2O              0.16496  0.17373  0.20326
 *N               0.00001  0.00000  0.00000
 *NO              0.01617  0.01223  0.00021
 NO2              0.00001  0.00001  0.00000
 *N2              0.54356  0.55184  0.58110
 *O               0.00590  0.00403  0.00001
 *OH              0.02740  0.02169  0.00076
 *O2              0.02017  0.01704  0.00015

  * THERMODYNAMIC PROPERTIES FITTED TO 20000.K

 NOTE. WEIGHT FRACTION OF FUEL IN TOTAL FUELS AND OF OXIDANT IN TOTAL OXIDANTS










              THEORETICAL ROCKET PERFORMANCE ASSUMING EQUILIBRIUM

           COMPOSITION DURING EXPANSION FROM INFINITE AREA COMBUSTOR

 Pin =   507.6 PSIA
 CASE =                

             REACTANT                    WT FRACTION      ENERGY      TEMP
                                          (SEE NOTE)     KJ/KG-MOL      K  
 FUEL        C32H66(a)                    0.9000000   -967800.000    298.150
 FUEL        stearic                      0.1000000   -912000.000    298.150
 OXIDANT     N2O(L),298.15K               1.0000000     65100.000    298.150

 O/F=    8.85710  %FUEL= 10.144972  R,EQ.RATIO= 1.052823  PHI,EQ.RATIO= 1.053007

                 CHAMBER   THROAT     EXIT
 Pinf/P            1.0000   1.7368   39.902
 P, BAR            35.000   20.152  0.87716
 T, K             3241.70  3058.16  2088.27
 RHO, KG/CU M    3.5239 0 2.1753 0 1.4473-1
 H, KJ/KG         1100.55   570.94 -1819.29
 U, KJ/KG          107.33  -355.46 -2425.34
 G, KJ/KG        -30199.7 -28957.1 -21982.5
 S, KJ/(KG)(K)     9.6555   9.6555   9.6555

 M, (1/n)          27.137   27.447   28.649
 (dLV/dLP)t      -1.01858 -1.01563 -1.00076
 (dLV/dLT)p        1.3756   1.3371   1.0251
 Cp, KJ/(KG)(K)    3.9794   3.8404   1.7733
 GAMMAs            1.1456   1.1434   1.2066
 SON VEL,M/SEC     1066.7   1029.2    855.1
 MACH NUMBER        0.000    1.000    2.826

 PERFORMANCE PARAMETERS

 Ae/At                      1.0000   6.4010
 CSTAR, M/SEC               1563.4   1563.4
 CF                         0.6583   1.5457
 Ivac, M/SEC                1929.3   2667.3
 Isp, M/SEC                 1029.2   2416.5


 MOLE FRACTIONS

 *CO              0.08893  0.07782  0.02637
 *CO2             0.10434  0.11766  0.17768
 *H               0.00708  0.00517  0.00024
 HNO              0.00001  0.00000  0.00000
 HO2              0.00004  0.00002  0.00000
 *H2              0.01774  0.01515  0.00615
 H2O              0.16360  0.17226  0.20305
 *N               0.00001  0.00000  0.00000
 *NO              0.01685  0.01286  0.00035
 NO2              0.00002  0.00001  0.00000
 *N2              0.54558  0.55391  0.58472
 *O               0.00611  0.00421  0.00003
 *OH              0.02773  0.02205  0.00105
 *O2              0.02196  0.01885  0.00037

  * THERMODYNAMIC PROPERTIES FITTED TO 20000.K

 NOTE. WEIGHT FRACTION OF FUEL IN TOTAL FUELS AND OF OXIDANT IN TOTAL OXIDANTS










              THEORETICAL ROCKET PERFORMANCE ASSUMING EQUILIBRIUM

           COMPOSITION DURING EXPANSION FROM INFINITE AREA COMBUSTOR

 Pin =   507.6 PSIA
 CASE =                

             REACTANT                    WT FRACTION      ENERGY      TEMP
                                          (SEE NOTE)     KJ/KG-MOL      K  
 FUEL        C32H66(a)                    0.9000000   -967800.000    298.150
 FUEL        stearic                      0.1000000   -912000.000    298.150
 OXIDANT     N2O(L),298.15K               1.0000000     65100.000    298.150

 O/F=    9.00000  %FUEL= 10.000000  R,EQ.RATIO= 1.036164  PHI,EQ.RATIO= 1.036288

                 CHAMBER   THROAT     EXIT
 Pinf/P            1.0000   1.7367   39.902
 P, BAR            35.000   20.154  0.87716
 T, K             3238.48  3055.38  2106.42
 RHO, KG/CU M    3.5362 0 2.1829 0 1.4408-1
 H, KJ/KG         1105.96   578.26 -1807.38
 U, KJ/KG          116.20  -345.00 -2416.17
 G, KJ/KG        -30097.0 -28860.5 -22102.9
 S, KJ/(KG)(K)     9.6350   9.6350   9.6350

 M, (1/n)          27.205   27.516   28.768
 (dLV/dLP)t      -1.01856 -1.01566 -1.00128
 (dLV/dLT)p        1.3755   1.3379   1.0415
 Cp, KJ/(KG)(K)    3.9733   3.8395   1.9225
 GAMMAs            1.1454   1.1431   1.1930
 SON VEL,M/SEC     1064.8   1027.3    852.2
 MACH NUMBER        0.000    1.000    2.832

 PERFORMANCE PARAMETERS

 Ae/At                      1.0000   6.4479
 CSTAR, M/SEC               1560.7   1560.7
 CF                         0.6582   1.5466
 Ivac, M/SEC                1926.0   2666.1
 Isp, M/SEC                 1027.3   2413.8


 MOLE FRACTIONS

 *CO              0.08551  0.07427  0.01990
 *CO2             0.10548  0.11890  0.18207
 *H               0.00682  0.00496  0.00023
 HNO              0.00001  0.00000  0.00000
 HO2              0.00004  0.00002  0.00000
 *H2              0.01674  0.01420  0.00446
 H2O              0.16223  0.17079  0.20242
 *N               0.00001  0.00000  0.00000
 *NO              0.01751  0.01346  0.00057
 NO2              0.00002  0.00001  0.00000
 *N2              0.54753  0.55591  0.58798
 *O               0.00630  0.00437  0.00005
 *OH              0.02801  0.02235  0.00142
 *O2              0.02378  0.02073  0.00090

  * THERMODYNAMIC PROPERTIES FITTED TO 20000.K

 NOTE. WEIGHT FRACTION OF FUEL IN TOTAL FUELS AND OF OXIDANT IN TOTAL OXIDANTS










              THEORETICAL ROCKET PERFORMANCE ASSUMING EQUILIBRIUM

           COMPOSITION DURING EXPANSION FROM INFINITE AREA COMBUSTOR

 Pin =   507.6 PSIA
 CASE =                

             REACTANT                    WT FRACTION      ENERGY      TEMP
                                          (SEE NOTE)     KJ/KG-MOL      K  
 FUEL        C32H66(a)                    0.9000000   -967800.000    298.150
 FUEL        stearic                      0.1000000   -912000.000    298.150
 OXIDANT     N2O(L),298.15K               1.0000000     65100.000    298.150

 O/F=    9.14290  %FUEL=  9.859113  R,EQ.RATIO= 1.020023  PHI,EQ.RATIO= 1.020091

                 CHAMBER   THROAT     EXIT
 Pinf/P            1.0000   1.7366   39.902
 P, BAR            35.000   20.155  0.87716
 T, K             3234.88  3052.08  2116.71
 RHO, KG/CU M    3.5487 0 2.1905 0 1.4386-1
 H, KJ/KG         1111.21   585.39 -1793.91
 U, KJ/KG          124.92  -334.69 -2403.62
 G, KJ/KG        -29992.4 -28760.6 -22146.3
 S, KJ/(KG)(K)     9.6151   9.6151   9.6151

 M, (1/n)          27.270   27.581   28.865
 (dLV/dLP)t      -1.01850 -1.01563 -1.00189
 (dLV/dLT)p        1.3746   1.3374   1.0604
 Cp, KJ/(KG)(K)    3.9625   3.8313   2.0898
 GAMMAs            1.1453   1.1430   1.1808
 SON VEL,M/SEC     1062.8   1025.5    848.5
 MACH NUMBER        0.000    1.000    2.841

 PERFORMANCE PARAMETERS

 Ae/At                      1.0000   6.4779
 CSTAR, M/SEC               1558.1   1558.1
 CF                         0.6582   1.5471
 Ivac, M/SEC                1922.7   2663.4
 Isp, M/SEC                 1025.5   2410.4


 MOLE FRACTIONS

 *CO              0.08224  0.07089  0.01454
 *CO2             0.10651  0.12001  0.18525
 *H               0.00657  0.00476  0.00021
 HNO              0.00001  0.00000  0.00000
 HO2              0.00004  0.00002  0.00000
 *H2              0.01582  0.01332  0.00316
 H2O              0.16086  0.16931  0.20130
 *N               0.00001  0.00000  0.00000
 *NO              0.01815  0.01404  0.00088
 NO2              0.00002  0.00001  0.00000
 *N2              0.54942  0.55784  0.59074
 N2O              0.00001  0.00000  0.00000
 *O               0.00647  0.00452  0.00008
 *OH              0.02823  0.02260  0.00181
 *O2              0.02564  0.02265  0.00203

  * THERMODYNAMIC PROPERTIES FITTED TO 20000.K

 NOTE. WEIGHT FRACTION OF FUEL IN TOTAL FUELS AND OF OXIDANT IN TOTAL OXIDANTS










              THEORETICAL ROCKET PERFORMANCE ASSUMING EQUILIBRIUM

           COMPOSITION DURING EXPANSION FROM INFINITE AREA COMBUSTOR

 Pin =   507.6 PSIA
 CASE =                

             REACTANT                    WT FRACTION      ENERGY      TEMP
                                          (SEE NOTE)     KJ/KG-MOL      K  
 FUEL        C32H66(a)                    0.9000000   -967800.000    298.150
 FUEL        stearic                      0.1000000   -912000.000    298.150
 OXIDANT     N2O(L),298.15K               1.0000000     65100.000    298.150

 O/F=    9.28570  %FUEL=  9.722236  R,EQ.RATIO= 1.004389  PHI,EQ.RATIO= 1.004404

                 CHAMBER   THROAT     EXIT
 Pinf/P            1.0000   1.7366   39.902
 P, BAR            35.000   20.155  0.87716
 T, K             3230.96  3048.32  2117.73
 RHO, KG/CU M    3.5611 0 2.1982 0 1.4415-1
 H, KJ/KG         1116.32   592.34 -1779.09
 U, KJ/KG          133.49  -324.53 -2387.60
 G, KJ/KG        -29886.5 -28658.0 -22099.9
 S, KJ/(KG)(K)     9.5956   9.5956   9.5956

 M, (1/n)          27.333   27.643   28.936
 (dLV/dLP)t      -1.01840 -1.01554 -1.00218
 (dLV/dLT)p        1.3729   1.3359   1.0692
 Cp, KJ/(KG)(K)    3.9476   3.8168   2.1650
 GAMMAs            1.1453   1.1430   1.1758
 SON VEL,M/SEC     1061.0   1023.7    845.9
 MACH NUMBER        0.000    1.000    2.845

 PERFORMANCE PARAMETERS

 Ae/At                      1.0000   6.4872
 CSTAR, M/SEC               1555.3   1555.3
 CF                         0.6582   1.5472
 Ivac, M/SEC                1919.3   2659.3
 Isp, M/SEC                 1023.7   2406.4


 MOLE FRACTIONS

 *CO              0.07910  0.06766  0.01059
 *CO2             0.10746  0.12101  0.18691
 *H               0.00632  0.00456  0.00018
 HNO              0.00001  0.00000  0.00000
 HO2              0.00004  0.00003  0.00000
 *H2              0.01497  0.01251  0.00226
 H2O              0.15949  0.16783  0.19969
 *N               0.00001  0.00000  0.00000
 *NO              0.01876  0.01460  0.00124
 NO2              0.00002  0.00001  0.00000
 *N2              0.55124  0.55970  0.59292
 N2O              0.00001  0.00000  0.00000
 *O               0.00662  0.00466  0.00011
 *OH              0.02841  0.02280  0.00214
 *O2              0.02753  0.02462  0.00396

  * THERMODYNAMIC PROPERTIES FITTED TO 20000.K

 NOTE. WEIGHT FRACTION OF FUEL IN TOTAL FUELS AND OF OXIDANT IN TOTAL OXIDANTS










              THEORETICAL ROCKET PERFORMANCE ASSUMING EQUILIBRIUM

           COMPOSITION DURING EXPANSION FROM INFINITE AREA COMBUSTOR

 Pin =   507.6 PSIA
 CASE =                

             REACTANT                    WT FRACTION      ENERGY      TEMP
                                          (SEE NOTE)     KJ/KG-MOL      K  
 FUEL        C32H66(a)                    0.9000000   -967800.000    298.150
 FUEL        stearic                      0.1000000   -912000.000    298.150
 OXIDANT     N2O(L),298.15K               1.0000000     65100.000    298.150

 O/F=    9.42860  %FUEL=  9.589015  R,EQ.RATIO= 0.989216  PHI,EQ.RATIO= 0.989181

                 CHAMBER   THROAT     EXIT
 Pinf/P            1.0000   1.7366   39.902
 P, BAR            35.000   20.154  0.87716
 T, K             3226.72  3044.14  2111.40
 RHO, KG/CU M    3.5737 0 2.2059 0 1.4483-1
 H, KJ/KG         1121.29   599.13 -1763.22
 U, KJ/KG          141.90  -314.51 -2368.86
 G, KJ/KG        -29779.2 -28552.9 -21983.0
 S, KJ/(KG)(K)     9.5764   9.5764   9.5764

 M, (1/n)          27.393   27.703   28.986
 (dLV/dLP)t      -1.01826 -1.01541 -1.00207
 (dLV/dLT)p        1.3705   1.3334   1.0659
 Cp, KJ/(KG)(K)    3.9289   3.7969   2.1324
 GAMMAs            1.1453   1.1430   1.1775
 SON VEL,M/SEC     1059.1   1021.9    844.5
 MACH NUMBER        0.000    1.000    2.844

 PERFORMANCE PARAMETERS

 Ae/At                      1.0000   6.4803
 CSTAR, M/SEC               1552.6   1552.6
 CF                         0.6582   1.5470
 Ivac, M/SEC                1916.0   2654.0
 Isp, M/SEC                 1021.9   2401.9


 MOLE FRACTIONS

 *CO              0.07608  0.06459  0.00785
 *CO2             0.10832  0.12191  0.18728
 *H               0.00608  0.00437  0.00015
 HNO              0.00001  0.00000  0.00000
 HO2              0.00004  0.00003  0.00000
 *H2              0.01417  0.01177  0.00167
 H2O              0.15813  0.16635  0.19776
 *N               0.00001  0.00000  0.00000
 *NO              0.01934  0.01513  0.00157
 NO2              0.00002  0.00001  0.00000
 *N2              0.55301  0.56149  0.59465
 N2O              0.00001  0.00000  0.00000
 *O               0.00677  0.00477  0.00013
 *OH              0.02855  0.02295  0.00236
 *O2              0.02944  0.02662  0.00657

  * THERMODYNAMIC PROPERTIES FITTED TO 20000.K

 NOTE. WEIGHT FRACTION OF FUEL IN TOTAL FUELS AND OF OXIDANT IN TOTAL OXIDANTS










              THEORETICAL ROCKET PERFORMANCE ASSUMING EQUILIBRIUM

           COMPOSITION DURING EXPANSION FROM INFINITE AREA COMBUSTOR

 Pin =   507.6 PSIA
 CASE =                

             REACTANT                    WT FRACTION      ENERGY      TEMP
                                          (SEE NOTE)     KJ/KG-MOL      K  
 FUEL        C32H66(a)                    0.9000000   -967800.000    298.150
 FUEL        stearic                      0.1000000   -912000.000    298.150
 OXIDANT     N2O(L),298.15K               1.0000000     65100.000    298.150

 O/F=    9.57140  %FUEL=  9.459485  R,EQ.RATIO= 0.974505  PHI,EQ.RATIO= 0.974423

                 CHAMBER   THROAT     EXIT
 Pinf/P            1.0000   1.7367   39.902
 P, BAR            35.000   20.153  0.87716
 T, K             3222.23  3039.60  2100.53
 RHO, KG/CU M    3.5862 0 2.2137 0 1.4576-1
 H, KJ/KG         1126.13   605.76 -1746.66
 U, KJ/KG          150.17  -304.64 -2348.43
 G, KJ/KG        -29671.1 -28446.0 -21823.0
 S, KJ/(KG)(K)     9.5578   9.5578   9.5578

 M, (1/n)          27.451   27.760   29.022
 (dLV/dLP)t      -1.01809 -1.01524 -1.00181
 (dLV/dLT)p        1.3676   1.3301   1.0576
 Cp, KJ/(KG)(K)    3.9071   3.7722   2.0560
 GAMMAs            1.1453   1.1432   1.1821
 SON VEL,M/SEC     1057.3   1020.2    843.4
 MACH NUMBER        0.000    1.000    2.842

 PERFORMANCE PARAMETERS

 Ae/At                      1.0000   6.4636
 CSTAR, M/SEC               1549.8   1549.8
 CF                         0.6582   1.5466
 Ivac, M/SEC                1912.6   2648.0
 Isp, M/SEC                 1020.2   2397.0


 MOLE FRACTIONS

 *CO              0.07319  0.06166  0.00596
 *CO2             0.10911  0.12270  0.18678
 *H               0.00585  0.00418  0.00012
 HNO              0.00001  0.00000  0.00000
 HO2              0.00005  0.00003  0.00000
 *H2              0.01344  0.01107  0.00126
 H2O              0.15677  0.16488  0.19566
 *N               0.00001  0.00000  0.00000
 *NO              0.01990  0.01564  0.00186
 NO2              0.00002  0.00001  0.00000
 *N2              0.55473  0.56323  0.59610
 N2O              0.00001  0.00000  0.00000
 *O               0.00689  0.00488  0.00015
 *OH              0.02864  0.02305  0.00246
 *O2              0.03138  0.02865  0.00966

  * THERMODYNAMIC PROPERTIES FITTED TO 20000.K

 NOTE. WEIGHT FRACTION OF FUEL IN TOTAL FUELS AND OF OXIDANT IN TOTAL OXIDANTS










              THEORETICAL ROCKET PERFORMANCE ASSUMING EQUILIBRIUM

           COMPOSITION DURING EXPANSION FROM INFINITE AREA COMBUSTOR

 Pin =   507.6 PSIA
 CASE =                

             REACTANT                    WT FRACTION      ENERGY      TEMP
                                          (SEE NOTE)     KJ/KG-MOL      K  
 FUEL        C32H66(a)                    0.9000000   -967800.000    298.150
 FUEL        stearic                      0.1000000   -912000.000    298.150
 OXIDANT     N2O(L),298.15K               1.0000000     65100.000    298.150

 O/F=    9.71430  %FUEL=  9.333321  R,EQ.RATIO= 0.960216  PHI,EQ.RATIO= 0.960089

                 CHAMBER   THROAT     EXIT
 Pinf/P            1.0000   1.7368   39.902
 P, BAR            35.000   20.152  0.87716
 T, K             3217.49  3034.72  2087.05
 RHO, KG/CU M    3.5988 0 2.2214 0 1.4684-1
 H, KJ/KG         1130.83   612.23 -1729.61
 U, KJ/KG          158.29  -294.92 -2326.98
 G, KJ/KG        -29562.3 -28337.4 -21639.0
 S, KJ/(KG)(K)     9.5395   9.5395   9.5395

 M, (1/n)          27.507   27.815   29.049
 (dLV/dLP)t      -1.01789 -1.01503 -1.00152
 (dLV/dLT)p        1.3641   1.3261   1.0489
 Cp, KJ/(KG)(K)    3.8826   3.7436   1.9758
 GAMMAs            1.1454   1.1434   1.1874
 SON VEL,M/SEC     1055.5   1018.4    842.2
 MACH NUMBER        0.000    1.000    2.840

 PERFORMANCE PARAMETERS

 Ae/At                      1.0000   6.4417
 CSTAR, M/SEC               1547.0   1547.0
 CF                         0.6583   1.5461
 Ivac, M/SEC                1909.2   2641.6
 Isp, M/SEC                 1018.4   2391.8


 MOLE FRACTIONS

 *CO              0.07042  0.05886  0.00460
 *CO2             0.10982  0.12339  0.18573
 *H               0.00563  0.00400  0.00010
 HNO              0.00001  0.00000  0.00000
 HO2              0.00005  0.00003  0.00000
 *H2              0.01275  0.01043  0.00098
 H2O              0.15542  0.16342  0.19348
 *N               0.00001  0.00000  0.00000
 *NO              0.02044  0.01612  0.00209
 NO2              0.00002  0.00002  0.00000
 *N2              0.55640  0.56491  0.59736
 N2O              0.00001  0.00000  0.00000
 *O               0.00700  0.00497  0.00015
 *OH              0.02870  0.02312  0.00249
 *O2              0.03333  0.03072  0.01301

  * THERMODYNAMIC PROPERTIES FITTED TO 20000.K

 NOTE. WEIGHT FRACTION OF FUEL IN TOTAL FUELS AND OF OXIDANT IN TOTAL OXIDANTS










              THEORETICAL ROCKET PERFORMANCE ASSUMING EQUILIBRIUM

           COMPOSITION DURING EXPANSION FROM INFINITE AREA COMBUSTOR

 Pin =   507.6 PSIA
 CASE =                

             REACTANT                    WT FRACTION      ENERGY      TEMP
                                          (SEE NOTE)     KJ/KG-MOL      K  
 FUEL        C32H66(a)                    0.9000000   -967800.000    298.150
 FUEL        stearic                      0.1000000   -912000.000    298.150
 OXIDANT     N2O(L),298.15K               1.0000000     65100.000    298.150

[...]

 Ae/At                      1.0000   6.2382
 CSTAR, M/SEC               1524.6   1524.6
 CF                         0.6595   1.5396
 Ivac, M/SEC                1882.1   2585.6
 Isp, M/SEC                 1005.4   2347.2


 MOLE FRACTIONS

 *CO              0.05186  0.04068  0.00085
 *CO2             0.11325  0.12617  0.17169
 *H               0.00410  0.00277  0.00002
 HNO              0.00001  0.00000  0.00000
 HO2              0.00006  0.00004  0.00000
 *H2              0.00858  0.00666  0.00020
 H2O              0.14506  0.15226  0.17636
 *N               0.00001  0.00000  0.00000
 *NO              0.02397  0.01918  0.00267
 NO2              0.00004  0.00002  0.00000
 *N2              0.56815  0.57664  0.60492
 N2O              0.00001  0.00000  0.00000
 *O               0.00746  0.00528  0.00011
 *OH              0.02815  0.02254  0.00175
 *O2              0.04930  0.04776  0.04143

  * THERMODYNAMIC PROPERTIES FITTED TO 20000.K

 NOTE. WEIGHT FRACTION OF FUEL IN TOTAL FUELS AND OF OXIDANT IN TOTAL OXIDANTS










              THEORETICAL ROCKET PERFORMANCE ASSUMING EQUILIBRIUM

           COMPOSITION DURING EXPANSION FROM INFINITE AREA COMBUSTOR

 Pin =   507.6 PSIA
 CASE =                

             REACTANT                    WT FRACTION      ENERGY      TEMP
                                          (SEE NOTE)     KJ/KG-MOL      K  
 FUEL        C32H66(a)                    0.9000000   -967800.000    298.150
 FUEL        stearic                      0.1000000   -912000.000    298.150
 OXIDANT     N2O(L),298.15K               1.0000000     65100.000    298.150

 O/F=   11.00000  %FUEL=  8.333333  R,EQ.RATIO= 0.848299  PHI,EQ.RATIO= 0.847872

                 CHAMBER   THROAT     EXIT
 Pinf/P            1.0000   1.7394   39.902
 P, BAR            35.000   20.121  0.87716
 T, K             3167.44  2980.60  1945.52
 RHO, KG/CU M    3.7115 0 2.2910 0 1.5805-1
 H, KJ/KG         1168.15   664.27 -1573.29
 U, KJ/KG          225.13  -214.00 -2128.29
 G, KJ/KG        -28577.2 -27326.5 -19843.7
 S, KJ/(KG)(K)     9.3910   9.3910   9.3910

 M, (1/n)          27.927   28.217   29.146
 (dLV/dLP)t      -1.01544 -1.01238 -1.00035
 (dLV/dLT)p        1.3190   1.2733   1.0124
 Cp, KJ/(KG)(K)    3.5909   3.3910   1.6178
 GAMMAs            1.1478   1.1474   1.2201
 SON VEL,M/SEC     1040.4   1003.9    822.9
 MACH NUMBER        0.000    1.000    2.846

 PERFORMANCE PARAMETERS

 Ae/At                      1.0000   6.2147
 CSTAR, M/SEC               1521.8   1521.8
 CF                         0.6597   1.5387
 Ivac, M/SEC                1878.8   2578.6
 Isp, M/SEC                 1003.9   2341.6


 MOLE FRACTIONS

 *CO              0.04993  0.03885  0.00071
 *CO2             0.11345  0.12623  0.16981
 *H               0.00394  0.00264  0.00002
 HNO              0.00001  0.00000  0.00000
 HO2              0.00006  0.00004  0.00000
 *H2              0.00819  0.00631  0.00017
 H2O              0.14383  0.15094  0.17437
 *NO              0.02432  0.01947  0.00266
 NO2              0.00004  0.00003  0.00000
 *N2              0.56945  0.57793  0.60571
 N2O              0.00001  0.00000  0.00000
 *O               0.00747  0.00527  0.00010
 *OH              0.02799  0.02237  0.00164
 *O2              0.05131  0.04992  0.04482

  * THERMODYNAMIC PROPERTIES FITTED TO 20000.K

 NOTE. WEIGHT FRACTION OF FUEL IN TOTAL FUELS AND OF OXIDANT IN TOTAL OXIDANTS










              THEORETICAL ROCKET PERFORMANCE ASSUMING EQUILIBRIUM

           COMPOSITION DURING EXPANSION FROM INFINITE AREA COMBUSTOR

 Pin =   507.6 PSIA
 CASE =                

             REACTANT                    WT FRACTION      ENERGY      TEMP
                                          (SEE NOTE)     KJ/KG-MOL      K  
 FUEL        C32H66(a)                    0.9000000   -967800.000    298.150
 FUEL        stearic                      0.1000000   -912000.000    298.150
 OXIDANT     N2O(L),298.15K               1.0000000     65100.000    298.150

 O/F=   11.14290  %FUEL=  8.235265  R,EQ.RATIO= 0.837450  PHI,EQ.RATIO= 0.836999

                 CHAMBER   THROAT     EXIT
 Pinf/P            1.0000   1.7398   39.902
 P, BAR            35.000   20.117  0.87716
 T, K             3161.32  2973.82  1930.49
 RHO, KG/CU M    3.7238 0 2.2987 0 1.5931-1
 H, KJ/KG         1171.81   669.45 -1556.44
 U, KJ/KG          231.92  -205.70 -2107.05
 G, KJ/KG        -28469.0 -27213.3 -19656.8
 S, KJ/(KG)(K)     9.3761   9.3761   9.3761

 M, (1/n)          27.966   28.253   29.151
 (dLV/dLP)t      -1.01513 -1.01205 -1.00031
 (dLV/dLT)p        1.3132   1.2666   1.0110
 Cp, KJ/(KG)(K)    3.5548   3.3477   1.6001
 GAMMAs            1.1482   1.1481   1.2223
 SON VEL,M/SEC     1038.9   1002.4    820.4
 MACH NUMBER        0.000    1.000    2.847

 PERFORMANCE PARAMETERS

 Ae/At                      1.0000   6.1918
 CSTAR, M/SEC               1519.0   1519.0
 CF                         0.6599   1.5378
 Ivac, M/SEC                1875.4   2571.6
 Isp, M/SEC                 1002.4   2335.9


 MOLE FRACTIONS

 *CO              0.04808  0.03710  0.00059
 *CO2             0.11360  0.12625  0.16795
 *H               0.00378  0.00252  0.00001
 HNO              0.00001  0.00000  0.00000
 HO2              0.00006  0.00004  0.00000
 *H2              0.00782  0.00599  0.00014
 H2O              0.14262  0.14963  0.17242
 *NO              0.02465  0.01974  0.00264
 NO2              0.00004  0.00003  0.00000
 *N2              0.57071  0.57918  0.60647
 N2O              0.00001  0.00000  0.00000
 *O               0.00747  0.00526  0.00009
 *OH              0.02781  0.02218  0.00154
 *O2              0.05331  0.05208  0.04815

  * THERMODYNAMIC PROPERTIES FITTED TO 20000.K

 NOTE. WEIGHT FRACTION OF FUEL IN TOTAL FUELS AND OF OXIDANT IN TOTAL OXIDANTS










              THEORETICAL ROCKET PERFORMANCE ASSUMING EQUILIBRIUM

           COMPOSITION DURING EXPANSION FROM INFINITE AREA COMBUSTOR

 Pin =   507.6 PSIA
 CASE =                

             REACTANT                    WT FRACTION      ENERGY      TEMP
                                          (SEE NOTE)     KJ/KG-MOL      K  
 FUEL        C32H66(a)                    0.9000000   -967800.000    298.150
 FUEL        stearic                      0.1000000   -912000.000    298.150
 OXIDANT     N2O(L),298.15K               1.0000000     65100.000    298.150

 O/F=   11.28570  %FUEL=  8.139544  R,EQ.RATIO= 0.826882  PHI,EQ.RATIO= 0.826408

                 CHAMBER   THROAT     EXIT
 Pinf/P            1.0000   1.7403   39.902
 P, BAR            35.000   20.112  0.87716
 T, K             3155.14  2966.93  1915.75
 RHO, KG/CU M    3.7362 0 2.3063 0 1.6056-1
 H, KJ/KG         1175.38   674.51 -1539.77
 U, KJ/KG          238.59  -197.52 -2086.09
 G, KJ/KG        -28361.4 -27100.4 -19474.0
 S, KJ/(KG)(K)     9.3615   9.3615   9.3615

 M, (1/n)          28.003   28.288   29.156
 (dLV/dLP)t      -1.01482 -1.01173 -1.00027
 (dLV/dLT)p        1.3073   1.2599   1.0097
 Cp, KJ/(KG)(K)    3.5185   3.3044   1.5843
 GAMMAs            1.1486   1.1487   1.2244
 SON VEL,M/SEC     1037.3   1000.9    817.9
 MACH NUMBER        0.000    1.000    2.849

 PERFORMANCE PARAMETERS

 Ae/At                      1.0000   6.1696
 CSTAR, M/SEC               1516.3   1516.3
 CF                         0.6601   1.5369
 Ivac, M/SEC                1872.1   2564.7
 Isp, M/SEC                 1000.9   2330.3


 MOLE FRACTIONS

 *CO              0.04630  0.03543  0.00049
 *CO2             0.11371  0.12622  0.16611
 *H               0.00364  0.00240  0.00001
 HNO              0.00001  0.00000  0.00000
 HO2              0.00006  0.00004  0.00000
 *H2              0.00747  0.00568  0.00012
 H2O              0.14143  0.14835  0.17050
 *NO              0.02497  0.01999  0.00261
 NO2              0.00004  0.00003  0.00000
 *N2              0.57195  0.58040  0.60721
 N2O              0.00001  0.00000  0.00000
 *O               0.00746  0.00524  0.00008
 *OH              0.02762  0.02198  0.00144
 *O2              0.05531  0.05423  0.05142

  * THERMODYNAMIC PROPERTIES FITTED TO 20000.K

 NOTE. WEIGHT FRACTION OF FUEL IN TOTAL FUELS AND OF OXIDANT IN TOTAL OXIDANTS










              THEORETICAL ROCKET PERFORMANCE ASSUMING EQUILIBRIUM

           COMPOSITION DURING EXPANSION FROM INFINITE AREA COMBUSTOR

 Pin =   507.6 PSIA
 CASE =                

             REACTANT                    WT FRACTION      ENERGY      TEMP
                                          (SEE NOTE)     KJ/KG-MOL      K  
 FUEL        C32H66(a)                    0.9000000   -967800.000    298.150
 FUEL        stearic                      0.1000000   -912000.000    298.150
 OXIDANT     N2O(L),298.15K               1.0000000     65100.000    298.150

 O/F=   11.42860  %FUEL=  8.045959  R,EQ.RATIO= 0.816571  PHI,EQ.RATIO= 0.816075

                 CHAMBER   THROAT     EXIT
 Pinf/P            1.0000   1.7407   39.902
 P, BAR            35.000   20.107  0.87716
 T, K             3148.89  2959.96  1901.29
 RHO, KG/CU M    3.7484 0 2.3139 0 1.6180-1
 H, KJ/KG         1178.87   679.48 -1523.28
 U, KJ/KG          245.15  -189.47 -2065.40
 G, KJ/KG        -28254.2 -26987.7 -19294.9
 S, KJ/(KG)(K)     9.3471   9.3471   9.3471

 M, (1/n)          28.040   28.322   29.160
 (dLV/dLP)t      -1.01451 -1.01140 -1.00024
 (dLV/dLT)p        1.3015   1.2532   1.0086
 Cp, KJ/(KG)(K)    3.4821   3.2613   1.5700
 GAMMAs            1.1491   1.1494   1.2263
 SON VEL,M/SEC     1035.8    999.4    815.3
 MACH NUMBER        0.000    1.000    2.851

 PERFORMANCE PARAMETERS

 Ae/At                      1.0000   6.1480
 CSTAR, M/SEC               1513.5   1513.5
 CF                         0.6603   1.5360
 Ivac, M/SEC                1868.9   2557.9
 Isp, M/SEC                  999.4   2324.7


 MOLE FRACTIONS

 *CO              0.04459  0.03384  0.00042
 *CO2             0.11379  0.12614  0.16430
 *H               0.00349  0.00229  0.00001
 HNO              0.00001  0.00000  0.00000
 HO2              0.00006  0.00004  0.00000
 *H2              0.00714  0.00539  0.00010
 H2O              0.14025  0.14708  0.16862
 *NO              0.02527  0.02023  0.00258
 NO2              0.00004  0.00003  0.00000
 *N2              0.57315  0.58158  0.60794
 N2O              0.00001  0.00000  0.00000
 *O               0.00745  0.00521  0.00008
 *OH              0.02742  0.02177  0.00134
 *O2              0.05731  0.05638  0.05462

  * THERMODYNAMIC PROPERTIES FITTED TO 20000.K

 NOTE. WEIGHT FRACTION OF FUEL IN TOTAL FUELS AND OF OXIDANT IN TOTAL OXIDANTS










              THEORETICAL ROCKET PERFORMANCE ASSUMING EQUILIBRIUM

           COMPOSITION DURING EXPANSION FROM INFINITE AREA COMBUSTOR

 Pin =   507.6 PSIA
 CASE =                

             REACTANT                    WT FRACTION      ENERGY      TEMP
                                          (SEE NOTE)     KJ/KG-MOL      K  
 FUEL        C32H66(a)                    0.9000000   -967800.000    298.150
 FUEL        stearic                      0.1000000   -912000.000    298.150
 OXIDANT     N2O(L),298.15K               1.0000000     65100.000    298.150

 O/F=   11.57140  %FUEL=  7.954564  R,EQ.RATIO= 0.806521  PHI,EQ.RATIO= 0.806004

                 CHAMBER   THROAT     EXIT
 Pinf/P            1.0000   1.7412   39.902
 P, BAR            35.000   20.102  0.87716
 T, K             3142.58  2952.90  1887.13
 RHO, KG/CU M    3.7607 0 2.3215 0 1.6304-1
 H, KJ/KG         1182.28   684.35 -1507.00
 U, KJ/KG          251.60  -181.55 -2045.01
 G, KJ/KG        -28147.7 -26875.4 -19119.8
 S, KJ/(KG)(K)     9.3331   9.3331   9.3331

 M, (1/n)          28.075   28.354   29.164
 (dLV/dLP)t      -1.01420 -1.01107 -1.00021
 (dLV/dLT)p        1.2956   1.2466   1.0077
 Cp, KJ/(KG)(K)    3.4458   3.2184   1.5572
 GAMMAs            1.1495   1.1501   1.2280
 SON VEL,M/SEC     1034.3    997.9    812.8
 MACH NUMBER        0.000    1.000    2.853

 PERFORMANCE PARAMETERS

 Ae/At                      1.0000   6.1271
 CSTAR, M/SEC               1510.8   1510.8
 CF                         0.6605   1.5351
 Ivac, M/SEC                1865.6   2551.2
 Isp, M/SEC                  997.9   2319.2


 MOLE FRACTIONS

 *CO              0.04295  0.03232  0.00035
 *CO2             0.11383  0.12602  0.16251
 *H               0.00336  0.00218  0.00001
 HNO              0.00001  0.00000  0.00000
 HO2              0.00006  0.00004  0.00000
 *H2              0.00683  0.00512  0.00009
 H2O              0.13909  0.14584  0.16678
 *NO              0.02555  0.02045  0.00254
 NO2              0.00004  0.00003  0.00000
 *N2              0.57433  0.58274  0.60864
 N2O              0.00001  0.00000  0.00000
 *O               0.00743  0.00518  0.00007
 *OH              0.02720  0.02154  0.00126
 *O2              0.05929  0.05852  0.05776

  * THERMODYNAMIC PROPERTIES FITTED TO 20000.K

 NOTE. WEIGHT FRACTION OF FUEL IN TOTAL FUELS AND OF OXIDANT IN TOTAL OXIDANTS










              THEORETICAL ROCKET PERFORMANCE ASSUMING EQUILIBRIUM

           COMPOSITION DURING EXPANSION FROM INFINITE AREA COMBUSTOR

 Pin =   507.6 PSIA
 CASE =                

             REACTANT                    WT FRACTION      ENERGY      TEMP
                                          (SEE NOTE)     KJ/KG-MOL      K  
 FUEL        C32H66(a)                    0.9000000   -967800.000    298.150
 FUEL        stearic                      0.1000000   -912000.000    298.150
 OXIDANT     N2O(L),298.15K               1.0000000     65100.000    298.150

 O/F=   11.71430  %FUEL=  7.865160  R,EQ.RATIO= 0.796708  PHI,EQ.RATIO= 0.796171

                 CHAMBER   THROAT     EXIT
 Pinf/P            1.0000   1.7416   39.902
 P, BAR            35.000   20.096  0.87716
 T, K             3136.23  2945.77  1873.26
 RHO, KG/CU M    3.7729 0 2.3291 0 1.6426-1
 H, KJ/KG         1185.62   689.12 -1490.90
 U, KJ/KG          257.94  -173.74 -2024.89
 G, KJ/KG        -28041.8 -26763.4 -18948.4
 S, KJ/(KG)(K)     9.3193   9.3193   9.3193

 M, (1/n)          28.109   28.386   29.167
 (dLV/dLP)t      -1.01389 -1.01075 -1.00019
 (dLV/dLT)p        1.2897   1.2400   1.0069
 Cp, KJ/(KG)(K)    3.4095   3.1759   1.5455
 GAMMAs            1.1500   1.1508   1.2297
 SON VEL,M/SEC     1032.9    996.5    810.4
 MACH NUMBER        0.000    1.000    2.855

 PERFORMANCE PARAMETERS

 Ae/At                     1.00000   6.1068
 CSTAR, M/SEC               1508.0   1508.0
 CF                         0.6608   1.5342
 Ivac, M/SEC                1862.4   2544.5
 Isp, M/SEC                  996.5   2313.7


 MOLE FRACTIONS

 *CO              0.04137  0.03087  0.00030
 *CO2             0.11384  0.12587  0.16076
 *H               0.00323  0.00208  0.00001
 HNO              0.00001  0.00000  0.00000
 HO2              0.00006  0.00004  0.00000
 *H2              0.00654  0.00487  0.00007
 H2O              0.13794  0.14461  0.16497
 *NO              0.02582  0.02065  0.00250
 NO2              0.00004  0.00003  0.00000
 *N2              0.57548  0.58387  0.60933
 N2O              0.00001  0.00000  0.00000
 *O               0.00740  0.00514  0.00006
 *OH              0.02698  0.02131  0.00117
 *O2              0.06127  0.06065  0.06084

  * THERMODYNAMIC PROPERTIES FITTED TO 20000.K

 NOTE. WEIGHT FRACTION OF FUEL IN TOTAL FUELS AND OF OXIDANT IN TOTAL OXIDANTS










              THEORETICAL ROCKET PERFORMANCE ASSUMING EQUILIBRIUM

           COMPOSITION DURING EXPANSION FROM INFINITE AREA COMBUSTOR

 Pin =   507.6 PSIA
 CASE =                

             REACTANT                    WT FRACTION      ENERGY      TEMP
                                          (SEE NOTE)     KJ/KG-MOL      K  
 FUEL        C32H66(a)                    0.9000000   -967800.000    298.150
 FUEL        stearic                      0.1000000   -912000.000    298.150
 OXIDANT     N2O(L),298.15K               1.0000000     65100.000    298.150

 O/F=   11.85710  %FUEL=  7.777804  R,EQ.RATIO= 0.787138  PHI,EQ.RATIO= 0.786583

                 CHAMBER   THROAT     EXIT
 Pinf/P            1.0000   1.7421   39.902
 P, BAR            35.000   20.091  0.87716
 T, K             3129.83  2938.59  1859.69
 RHO, KG/CU M    3.7850 0 2.3366 0 1.6548-1
 H, KJ/KG         1188.88   693.79 -1475.01
 U, KJ/KG          264.17  -166.05 -2005.08
 G, KJ/KG        -27936.6 -26652.0 -18780.8
 S, KJ/(KG)(K)     9.3058   9.3058   9.3058

 M, (1/n)          28.142   28.416   29.170
 (dLV/dLP)t      -1.01358 -1.01043 -1.00016
 (dLV/dLT)p        1.2838   1.2335   1.0062
 Cp, KJ/(KG)(K)    3.3734   3.1339   1.5347
 GAMMAs            1.1505   1.1516   1.2313
 SON VEL,M/SEC     1031.4    995.1    807.9
 MACH NUMBER        0.000    1.000    2.857

 PERFORMANCE PARAMETERS

 Ae/At                      1.0000   6.0872
 CSTAR, M/SEC               1505.3   1505.3
 CF                         0.6610   1.5334
 Ivac, M/SEC                1859.2   2537.8
 Isp, M/SEC                  995.1   2308.2


 MOLE FRACTIONS

 *CO              0.03985  0.02949  0.00025
 *CO2             0.11381  0.12567  0.15903
 *H               0.00310  0.00198  0.00000
 HNO              0.00001  0.00000  0.00000
 HO2              0.00006  0.00004  0.00000
 *H2              0.00626  0.00463  0.00006
 H2O              0.13681  0.14340  0.16320
 *NO              0.02607  0.02084  0.00245
 NO2              0.00005  0.00003  0.00000
 *N2              0.57660  0.58496  0.61000
 N2O              0.00001  0.00000  0.00000
 *O               0.00737  0.00510  0.00006
 *OH              0.02675  0.02107  0.00110
 *O2              0.06324  0.06278  0.06385

  * THERMODYNAMIC PROPERTIES FITTED TO 20000.K

 NOTE. WEIGHT FRACTION OF FUEL IN TOTAL FUELS AND OF OXIDANT IN TOTAL OXIDANTS










              THEORETICAL ROCKET PERFORMANCE ASSUMING EQUILIBRIUM

           COMPOSITION DURING EXPANSION FROM INFINITE AREA COMBUSTOR

 Pin =   507.6 PSIA
 CASE =                

             REACTANT                    WT FRACTION      ENERGY      TEMP
                                          (SEE NOTE)     KJ/KG-MOL      K  
 FUEL        C32H66(a)                    0.9000000   -967800.000    298.150
 FUEL        stearic                      0.1000000   -912000.000    298.150
 OXIDANT     N2O(L),298.15K               1.0000000     65100.000    298.150

 O/F=   12.00000  %FUEL=  7.692308  R,EQ.RATIO= 0.777789  PHI,EQ.RATIO= 0.777216

                 CHAMBER   THROAT     EXIT
 Pinf/P            1.0000   1.7426   39.902
 P, BAR            35.000   20.085  0.87716
 T, K             3123.39  2931.34  1846.39
 RHO, KG/CU M    3.7971 0 2.3441 0 1.6669-1
 H, KJ/KG         1192.07   698.38 -1459.31
 U, KJ/KG          270.31  -158.47 -1985.54
 G, KJ/KG        -27831.9 -26540.9 -18616.8
 S, KJ/(KG)(K)     9.2925   9.2925   9.2925

 M, (1/n)          28.174   28.445   29.174
 (dLV/dLP)t      -1.01327 -1.01012 -1.00015
 (dLV/dLT)p        1.2780   1.2271   1.0055
 Cp, KJ/(KG)(K)    3.3376   3.0924   1.5248
 GAMMAs            1.1509   1.1524   1.2328
 SON VEL,M/SEC     1030.0    993.7    805.4
 MACH NUMBER        0.000    1.000    2.859

 PERFORMANCE PARAMETERS

 Ae/At                      1.0000   6.0682
 CSTAR, M/SEC               1502.6   1502.6
 CF                         0.6613   1.5325
 Ivac, M/SEC                1856.0   2531.3
 Isp, M/SEC                  993.7   2302.8


 MOLE FRACTIONS

 *CO              0.03839  0.02816  0.00021
 *CO2             0.11375  0.12545  0.15733
 *H               0.00298  0.00189  0.00000
 HNO              0.00001  0.00000  0.00000
 HO2              0.00006  0.00004  0.00000
 *H2              0.00599  0.00440  0.00005
 H2O              0.13570  0.14220  0.16146
 *NO              0.02631  0.02102  0.00241
 NO2              0.00005  0.00003  0.00000
 *N2              0.57770  0.58603  0.61065
 N2O              0.00001  0.00000  0.00000
 *O               0.00733  0.00505  0.00005
 *OH              0.02650  0.02082  0.00102
 *O2              0.06521  0.06490  0.06680

  * THERMODYNAMIC PROPERTIES FITTED TO 20000.K

 NOTE. WEIGHT FRACTION OF FUEL IN TOTAL FUELS AND OF OXIDANT IN TOTAL OXIDANTS



