
 *******************************************************************************

         NASA-GLENN CHEMICAL EQUILIBRIUM PROGRAM CEA2, MAY 21, 2004
                   BY  BONNIE MCBRIDE AND SANFORD GORDON
      REFS: NASA RP-1311, PART I, 1994 AND NASA RP-1311, PART II, 1996

 *******************************************************************************



 problem
 o/f=5.0000,5.1429,5.2857,5.4286,5.5714,
 5.7143,5.8571,6.0000,6.1429,6.2857,
 6.4286,6.5714,6.7143,6.8571,7.0000,
 7.1429,7.2857,7.4286,7.5714,7.7143,
 7.8571,8.0000,8.1429,8.2857,8.4286,
 8.5714,8.7143,8.8571,9.0000,9.1429,
 9.2857,9.4286,9.5714,9.7143,9.8571,
 10.0000,10.1429,10.2857,10.4286,10.5714,
 10.7143,10.8571,11.0000,11.1429,11.2857,
 11.4286,11.5714,11.7143,11.8571,12.0000,
     rocket  eql
   p,bar=25.0000,
   pi/p=28.5012,
 react
   fuel=C32H66(a) wt=0.900 t,k=298.150
   fuel=stearic wt=0.100 t,k=298.150
   h,kj/mol=-912.000 C 18 H 36 O 2
   oxid=N2O(L),298.15K wt=1.000 t,k=298.150
 output siunits short
 end





              THEORETICAL ROCKET PERFORMANCE ASSUMING EQUILIBRIUM

           COMPOSITION DURING EXPANSION FROM INFINITE AREA COMBUSTOR

 Pin =   362.6 PSIA
 CASE =                

             REACTANT                    WT FRACTION      ENERGY      TEMP
                                          (SEE NOTE)     KJ/KG-MOL      K  
 FUEL        C32H66(a)                    0.9000000   -967800.000    298.150
 FUEL        stearic                      0.1000000   -912000.000    298.150
 OXIDANT     N2O(L),298.15K               1.0000000     65100.000    298.150

 O/F=    5.00000  %FUEL= 16.666667  R,EQ.RATIO= 1.859996  PHI,EQ.RATIO= 1.865318

                 CHAMBER   THROAT     EXIT
 Pinf/P            1.0000   1.7992   28.501
 P, BAR            25.000   13.895  0.87716
 T, K             2805.81  2514.95  1413.17
 RHO, KG/CU M    2.5009 0 1.5547 0 1.7496-1
 H, KJ/KG          857.18   301.45 -1581.88
 U, KJ/KG         -142.47  -592.28 -2083.22
 G, KJ/KG        -28727.5 -26216.4 -16482.5
 S, KJ/(KG)(K)    10.5441  10.5441  10.5441

 M, (1/n)          23.337   23.397   23.437
 (dLV/dLP)t      -1.00217 -1.00087 -1.00000
 (dLV/dLT)p        1.0455   1.0197   1.0000
 Cp, KJ/(KG)(K)    2.0781   1.8781   1.6451
 GAMMAs            1.2273   1.2436   1.2750
 SON VEL,M/SEC     1107.7   1054.3    799.5
 MACH NUMBER        0.000    1.000    2.763

 PERFORMANCE PARAMETERS

 Ae/At                      1.0000   4.2417
 CSTAR, M/SEC               1525.2   1525.2
 CF                         0.6912   1.4481
 Ivac, M/SEC                1902.0   2435.6
 Isp, M/SEC                 1054.3   2208.6


 MOLE FRACTIONS

 *CO              0.23980  0.23795  0.21259
 *CO2             0.03325  0.03581  0.06164
 *H               0.00627  0.00274  0.00000
 *H2              0.14066  0.14437  0.17139
 H2O              0.13607  0.13550  0.11063
 NH3              0.00001  0.00001  0.00000
 *NO              0.00026  0.00006  0.00000
 *N2              0.44172  0.44296  0.44375
 *O               0.00005  0.00001  0.00000
 *OH              0.00187  0.00060  0.00000
 *O2              0.00002  0.00000  0.00000

  * THERMODYNAMIC PROPERTIES FITTED TO 20000.K

 NOTE. WEIGHT FRACTION OF FUEL IN TOTAL FUELS AND OF OXIDANT IN TOTAL OXIDANTS










              THEORETICAL ROCKET PERFORMANCE ASSUMING EQUILIBRIUM

           COMPOSITION DURING EXPANSION FROM INFINITE AREA COMBUSTOR

 Pin =   362.6 PSIA
 CASE =                

             REACTANT                    WT FRACTION      ENERGY      TEMP
                                          (SEE NOTE)     KJ/KG-MOL      K  
 FUEL        C32H66(a)                    0.9000000   -967800.000    298.150
 FUEL        stearic                      0.1000000   -912000.000    298.150
 OXIDANT     N2O(L),298.15K               1.0000000     65100.000    298.150

 O/F=    5.14290  %FUEL= 16.278956  R,EQ.RATIO= 1.808623  PHI,EQ.RATIO= 1.813489

                 CHAMBER   THROAT     EXIT
 Pinf/P            1.0000   1.7960   28.501
 P, BAR            25.000   13.920  0.87716
 T, K             2853.52  2565.30  1450.24
 RHO, KG/CU M    2.4840 0 1.5431 0 1.7236-1
 H, KJ/KG          871.65   313.12 -1594.72
 U, KJ/KG         -134.79  -588.97 -2103.62
 G, KJ/KG        -29108.5 -26638.9 -16831.4
 S, KJ/(KG)(K)    10.5064  10.5064  10.5064

 M, (1/n)          23.574   23.644   23.694
 (dLV/dLP)t      -1.00261 -1.00108 -1.00000
 (dLV/dLT)p        1.0543   1.0244   1.0001
 Cp, KJ/(KG)(K)    2.1328   1.9067   1.6385
 GAMMAs            1.2213   1.2383   1.2725
 SON VEL,M/SEC     1108.7   1056.9    804.7
 MACH NUMBER        0.000    1.000    2.760

 PERFORMANCE PARAMETERS

 Ae/At                      1.0000   4.2602
 CSTAR, M/SEC               1532.9   1532.9
 CF                         0.6895   1.4489
 Ivac, M/SEC                1910.4   2450.1
 Isp, M/SEC                 1056.9   2221.0


 MOLE FRACTIONS

 *CO              0.23325  0.23142  0.20658
 *CO2             0.03616  0.03879  0.06421
 *H               0.00710  0.00326  0.00000
 *H2              0.12974  0.13336  0.16006
 H2O              0.14252  0.14248  0.11842
 NH3              0.00001  0.00000  0.00000
 *NO              0.00038  0.00010  0.00000
 *N2              0.44822  0.44971  0.45071
 *O               0.00008  0.00001  0.00000
 *OH              0.00250  0.00085  0.00000
 *O2              0.00003  0.00001  0.00000

  * THERMODYNAMIC PROPERTIES FITTED TO 20000.K

 NOTE. WEIGHT FRACTION OF FUEL IN TOTAL FUELS AND OF OXIDANT IN TOTAL OXIDANTS










              THEORETICAL ROCKET PERFORMANCE ASSUMING EQUILIBRIUM

           COMPOSITION DURING EXPANSION FROM INFINITE AREA COMBUSTOR

 Pin =   362.6 PSIA
 CASE =                

             REACTANT                    WT FRACTION      ENERGY      TEMP
                                          (SEE NOTE)     KJ/KG-MOL      K  
 FUEL        C32H66(a)                    0.9000000   -967800.000    298.150
 FUEL        stearic                      0.1000000   -912000.000    298.150
 OXIDANT     N2O(L),298.15K               1.0000000     65100.000    298.150

 O/F=    5.28570  %FUEL= 15.909127  R,EQ.RATIO= 1.760046  PHI,EQ.RATIO= 1.764495

                 CHAMBER   THROAT     EXIT
 Pinf/P            1.0000   1.7928   28.501
 P, BAR            25.000   13.945  0.87716
 T, K             2897.87  2613.10  1486.35
 RHO, KG/CU M    2.4696 0 1.5329 0 1.6996-1
 H, KJ/KG          885.45   324.68 -1606.38
 U, KJ/KG         -126.86  -585.02 -2122.48
 G, KJ/KG        -29453.1 -27032.5 -17167.4
 S, KJ/(KG)(K)    10.4693  10.4693  10.4693

 M, (1/n)          23.801   23.883   23.946
 (dLV/dLP)t      -1.00310 -1.00132 -1.00000
 (dLV/dLT)p        1.0644   1.0297   1.0001
 Cp, KJ/(KG)(K)    2.1953   1.9406   1.6323
 GAMMAs            1.2153   1.2329   1.2702
 SON VEL,M/SEC     1109.2   1059.0    809.7
 MACH NUMBER        0.000    1.000    2.757

 PERFORMANCE PARAMETERS

 Ae/At                      1.0000   4.2787
 CSTAR, M/SEC               1540.0   1540.0
 CF                         0.6877   1.4497
 Ivac, M/SEC                1918.0   2463.6
 Isp, M/SEC                 1059.0   2232.4


 MOLE FRACTIONS

 *CO              0.22665  0.22483  0.20058
 *CO2             0.03918  0.04192  0.06687
 *H               0.00790  0.00381  0.00001
 *H2              0.11945  0.12289  0.14917
 H2O              0.14835  0.14894  0.12587
 NH3              0.00001  0.00000  0.00000
 *NO              0.00054  0.00015  0.00000
 *N2              0.45447  0.45624  0.45750
 *O               0.00012  0.00002  0.00000
 *OH              0.00326  0.00119  0.00000
 *O2              0.00006  0.00001  0.00000

  * THERMODYNAMIC PROPERTIES FITTED TO 20000.K

 NOTE. WEIGHT FRACTION OF FUEL IN TOTAL FUELS AND OF OXIDANT IN TOTAL OXIDANTS










              THEORETICAL ROCKET PERFORMANCE ASSUMING EQUILIBRIUM

           COMPOSITION DURING EXPANSION FROM INFINITE AREA COMBUSTOR

 Pin =   362.6 PSIA
 CASE =                

             REACTANT                    WT FRACTION      ENERGY      TEMP
                                          (SEE NOTE)     KJ/KG-MOL      K  
 FUEL        C32H66(a)                    0.9000000   -967800.000    298.150
 FUEL        stearic                      0.1000000   -912000.000    298.150
 OXIDANT     N2O(L),298.15K               1.0000000     65100.000    298.150

 O/F=    5.42860  %FUEL= 15.555486  R,EQ.RATIO= 1.713978  PHI,EQ.RATIO= 1.718047

                 CHAMBER   THROAT     EXIT
 Pinf/P            1.0000   1.7894   28.501
 P, BAR            25.000   13.971  0.87716
 T, K             2938.94  2658.42  1521.63
 RHO, KG/CU M    2.4575 0 1.5242 0 1.6772-1
 H, KJ/KG          898.65   336.17 -1616.95
 U, KJ/KG         -118.66  -580.43 -2139.94
 G, KJ/KG        -29762.6 -27398.5 -17491.8
 S, KJ/(KG)(K)    10.4328  10.4328  10.4328

 M, (1/n)          24.020   24.115   24.191
 (dLV/dLP)t      -1.00365 -1.00161 -1.00000
 (dLV/dLT)p        1.0757   1.0360   1.0001
 Cp, KJ/(KG)(K)    2.2664   1.9807   1.6265
 GAMMAs            1.2093   1.2273   1.2680
 SON VEL,M/SEC     1109.2   1060.6    814.3
 MACH NUMBER        0.000    1.000    2.754

 PERFORMANCE PARAMETERS

 Ae/At                      1.0000   4.2974
 CSTAR, M/SEC               1546.4   1546.4
 CF                         0.6859   1.4505
 Ivac, M/SEC                1924.8   2476.2
 Isp, M/SEC                 1060.6   2243.0


 MOLE FRACTIONS

 *CO              0.22000  0.21815  0.19455
 *CO2             0.04231  0.04519  0.06963
 *H               0.00866  0.00436  0.00001
 *H2              0.10979  0.11298  0.13871
 H2O              0.15356  0.15486  0.13297
 *NO              0.00075  0.00022  0.00000
 *N2              0.46047  0.46256  0.46413
 *O               0.00019  0.00004  0.00000
 *OH              0.00416  0.00161  0.00000
 *O2              0.00010  0.00002  0.00000

  * THERMODYNAMIC PROPERTIES FITTED TO 20000.K

 NOTE. WEIGHT FRACTION OF FUEL IN TOTAL FUELS AND OF OXIDANT IN TOTAL OXIDANTS










              THEORETICAL ROCKET PERFORMANCE ASSUMING EQUILIBRIUM

           COMPOSITION DURING EXPANSION FROM INFINITE AREA COMBUSTOR

 Pin =   362.6 PSIA
 CASE =                

             REACTANT                    WT FRACTION      ENERGY      TEMP
                                          (SEE NOTE)     KJ/KG-MOL      K  
 FUEL        C32H66(a)                    0.9000000   -967800.000    298.150
 FUEL        stearic                      0.1000000   -912000.000    298.150
 OXIDANT     N2O(L),298.15K               1.0000000     65100.000    298.150

 O/F=    5.57140  %FUEL= 15.217457  R,EQ.RATIO= 1.670289  PHI,EQ.RATIO= 1.674012

                 CHAMBER   THROAT     EXIT
 Pinf/P            1.0000   1.7860   28.501
 P, BAR            25.000   13.998  0.87716
 T, K             2976.70  2701.21  1556.09
 RHO, KG/CU M    2.4475 0 1.5169 0 1.6562-1
 H, KJ/KG          911.26   347.61 -1626.47
 U, KJ/KG         -110.21  -575.21 -2156.08
 G, KJ/KG        -30037.3 -27736.7 -17805.1
 S, KJ/(KG)(K)    10.3970  10.3970  10.3970

 M, (1/n)          24.230   24.338   24.430
 (dLV/dLP)t      -1.00428 -1.00194 -1.00000
 (dLV/dLT)p        1.0885   1.0432   1.0001
 Cp, KJ/(KG)(K)    2.3468   2.0279   1.6210
 GAMMAs            1.2033   1.2216   1.2658
 SON VEL,M/SEC     1108.7   1061.7    818.8
 MACH NUMBER        0.000    1.000    2.752

 PERFORMANCE PARAMETERS

 Ae/At                      1.0000   4.3163
 CSTAR, M/SEC               1552.3   1552.3
 CF                         0.6840   1.4513
 Ivac, M/SEC                1930.9   2488.0
 Isp, M/SEC                 1061.7   2252.9


 MOLE FRACTIONS

 *CO              0.21332  0.21140  0.18849
 *CO2             0.04552  0.04860  0.07250
 *H               0.00934  0.00492  0.00001
 *H2              0.10079  0.10364  0.12869
 H2O              0.15815  0.16023  0.13971
 *NO              0.00101  0.00032  0.00000
 *N2              0.46623  0.46865  0.47059
 *O               0.00027  0.00006  0.00000
 *OH              0.00518  0.00213  0.00000
 *O2              0.00017  0.00004  0.00000

  * THERMODYNAMIC PROPERTIES FITTED TO 20000.K

 NOTE. WEIGHT FRACTION OF FUEL IN TOTAL FUELS AND OF OXIDANT IN TOTAL OXIDANTS










              THEORETICAL ROCKET PERFORMANCE ASSUMING EQUILIBRIUM

           COMPOSITION DURING EXPANSION FROM INFINITE AREA COMBUSTOR

 Pin =   362.6 PSIA
 CASE =                

             REACTANT                    WT FRACTION      ENERGY      TEMP
                                          (SEE NOTE)     KJ/KG-MOL      K  
 FUEL        C32H66(a)                    0.9000000   -967800.000    298.150
 FUEL        stearic                      0.1000000   -912000.000    298.150
 OXIDANT     N2O(L),298.15K               1.0000000     65100.000    298.150

 O/F=    5.71430  %FUEL= 14.893585  R,EQ.RATIO= 1.628745  PHI,EQ.RATIO= 1.632149

                 CHAMBER   THROAT     EXIT
 Pinf/P            1.0000   1.7824   28.501
 P, BAR            25.000   14.026  0.87716
 T, K             3011.22  2741.48  1589.83
 RHO, KG/CU M    2.4394 0 1.5108 0 1.6366-1
 H, KJ/KG          923.35   359.04 -1635.01
 U, KJ/KG         -101.48  -569.34 -2170.98
 G, KJ/KG        -30278.3 -28047.5 -18108.5
 S, KJ/(KG)(K)    10.3618  10.3618  10.3618

 M, (1/n)          24.430   24.553   24.663
 (dLV/dLP)t      -1.00498 -1.00232 -1.00001
 (dLV/dLT)p        1.1028   1.0516   1.0002
 Cp, KJ/(KG)(K)    2.4368   2.0835   1.6158
 GAMMAs            1.1974   1.2157   1.2637
 SON VEL,M/SEC     1107.8   1062.4    823.0
 MACH NUMBER        0.000    1.000    2.749

 PERFORMANCE PARAMETERS

 Ae/At                      1.0000   4.3357
 CSTAR, M/SEC               1557.6   1557.6
 CF                         0.6821   1.4523
 Ivac, M/SEC                1936.2   2499.0
 Isp, M/SEC                 1062.4   2262.0


 MOLE FRACTIONS

 *CO              0.20662  0.20457  0.18237
 *CO2             0.04881  0.05215  0.07551
 *H               0.00995  0.00546  0.00002
 *H2              0.09243  0.09487  0.11910
 H2O              0.16212  0.16503  0.14610
 *NO              0.00133  0.00046  0.00000
 *N2              0.47173  0.47453  0.47690
 *O               0.00038  0.00009  0.00000
 *OH              0.00633  0.00276  0.00000
 *O2              0.00027  0.00006  0.00000

  * THERMODYNAMIC PROPERTIES FITTED TO 20000.K

 NOTE. WEIGHT FRACTION OF FUEL IN TOTAL FUELS AND OF OXIDANT IN TOTAL OXIDANTS










              THEORETICAL ROCKET PERFORMANCE ASSUMING EQUILIBRIUM

           COMPOSITION DURING EXPANSION FROM INFINITE AREA COMBUSTOR

 Pin =   362.6 PSIA
 CASE =                

             REACTANT                    WT FRACTION      ENERGY      TEMP
                                          (SEE NOTE)     KJ/KG-MOL      K  
 FUEL        C32H66(a)                    0.9000000   -967800.000    298.150
 FUEL        stearic                      0.1000000   -912000.000    298.150
 OXIDANT     N2O(L),298.15K               1.0000000     65100.000    298.150

 O/F=    5.85710  %FUEL= 14.583424  R,EQ.RATIO= 1.589243  PHI,EQ.RATIO= 1.592356

                 CHAMBER   THROAT     EXIT
 Pinf/P            1.0000   1.7787   28.501
 P, BAR            25.000   14.055  0.87716
 T, K             3042.50  2779.12  1622.87
 RHO, KG/CU M    2.4333 0 1.5060 0 1.6181-1
 H, KJ/KG          934.92   370.45 -1642.61
 U, KJ/KG         -92.486  -562.82 -2184.71
 G, KJ/KG        -30486.0 -28330.4 -18402.5
 S, KJ/(KG)(K)    10.3273  10.3273  10.3273

 M, (1/n)          24.622   24.759   24.891
 (dLV/dLP)t      -1.00575 -1.00276 -1.00001
 (dLV/dLT)p        1.1186   1.0613   1.0002
 Cp, KJ/(KG)(K)    2.5363   2.1483   1.6111
 GAMMAs            1.1917   1.2097   1.2617
 SON VEL,M/SEC     1106.5   1062.5    827.0
 MACH NUMBER        0.000    1.000    2.745

 PERFORMANCE PARAMETERS

 Ae/At                      1.0000   4.3556
 CSTAR, M/SEC               1562.3   1562.3
 CF                         0.6801   1.4533
 Ivac, M/SEC                1940.9   2509.2
 Isp, M/SEC                 1062.5   2270.5


 MOLE FRACTIONS

 *CO              0.19993  0.19768  0.17619
 *CO2             0.05215  0.05581  0.07865
 *H               0.01047  0.00598  0.00002
 *H2              0.08473  0.08670  0.10994
 H2O              0.16548  0.16924  0.15213
 *NO              0.00172  0.00064  0.00000
 *N2              0.47698  0.48019  0.48306
 *O               0.00053  0.00014  0.00000
 *OH              0.00759  0.00351  0.00000
 *O2              0.00041  0.00011  0.00000

  * THERMODYNAMIC PROPERTIES FITTED TO 20000.K

 NOTE. WEIGHT FRACTION OF FUEL IN TOTAL FUELS AND OF OXIDANT IN TOTAL OXIDANTS










              THEORETICAL ROCKET PERFORMANCE ASSUMING EQUILIBRIUM

           COMPOSITION DURING EXPANSION FROM INFINITE AREA COMBUSTOR

 Pin =   362.6 PSIA
 CASE =                

             REACTANT                    WT FRACTION      ENERGY      TEMP
                                          (SEE NOTE)     KJ/KG-MOL      K  
 FUEL        C32H66(a)                    0.9000000   -967800.000    298.150
 FUEL        stearic                      0.1000000   -912000.000    298.150
 OXIDANT     N2O(L),298.15K               1.0000000     65100.000    298.150

 O/F=    6.00000  %FUEL= 14.285714  R,EQ.RATIO= 1.551587  PHI,EQ.RATIO= 1.554432

                 CHAMBER   THROAT     EXIT
 Pinf/P            1.0000   1.7749   28.501
 P, BAR            25.000   14.085  0.87716
 T, K             3070.64  2814.14  1655.30
 RHO, KG/CU M    2.4289 0 1.5024 0 1.6006-1
 H, KJ/KG          946.03   381.88 -1649.31
 U, KJ/KG         -83.226  -555.63 -2197.34
 G, KJ/KG        -30661.7 -28585.6 -18688.2
 S, KJ/(KG)(K)    10.2935  10.2935  10.2935

 M, (1/n)          24.805   24.958   25.114
 (dLV/dLP)t      -1.00660 -1.00327 -1.00001
 (dLV/dLT)p        1.1359   1.0726   1.0003
 Cp, KJ/(KG)(K)    2.6448   2.2236   1.6067
 GAMMAs            1.1861   1.2035   1.2597
 SON VEL,M/SEC     1104.9   1062.2    830.9
 MACH NUMBER        0.000    1.000    2.742

 PERFORMANCE PARAMETERS

 Ae/At                      1.0000   4.3763
 CSTAR, M/SEC               1566.6   1566.6
 CF                         0.6781   1.4543
 Ivac, M/SEC                1944.8   2518.8
 Isp, M/SEC                 1062.2   2278.3


 MOLE FRACTIONS

 *CO              0.19326  0.19073  0.16994
 *CO2             0.05551  0.05957  0.08193
 *H               0.01090  0.00645  0.00003
 *H2              0.07765  0.07912  0.10121
 H2O              0.16826  0.17288  0.15780
 *NO              0.00217  0.00086  0.00000
 *N2              0.48199  0.48562  0.48908
 *O               0.00070  0.00020  0.00000
 *OH              0.00894  0.00437  0.00000
 *O2              0.00060  0.00018  0.00000

  * THERMODYNAMIC PROPERTIES FITTED TO 20000.K

 NOTE. WEIGHT FRACTION OF FUEL IN TOTAL FUELS AND OF OXIDANT IN TOTAL OXIDANTS










              THEORETICAL ROCKET PERFORMANCE ASSUMING EQUILIBRIUM

           COMPOSITION DURING EXPANSION FROM INFINITE AREA COMBUSTOR

 Pin =   362.6 PSIA
 CASE =                

             REACTANT                    WT FRACTION      ENERGY      TEMP
                                          (SEE NOTE)     KJ/KG-MOL      K  
 FUEL        C32H66(a)                    0.9000000   -967800.000    298.150
 FUEL        stearic                      0.1000000   -912000.000    298.150
 OXIDANT     N2O(L),298.15K               1.0000000     65100.000    298.150

 O/F=    6.14290  %FUEL= 13.999916  R,EQ.RATIO= 1.515674  PHI,EQ.RATIO= 1.518272

                 CHAMBER   THROAT     EXIT
 Pinf/P            1.0000   1.7711   28.501
 P, BAR            25.000   14.115  0.87716
 T, K             3095.71  2846.43  1687.15
 RHO, KG/CU M    2.4262 0 1.4999 0 1.5839-1
 H, KJ/KG          956.70   393.31 -1655.12
 U, KJ/KG         -73.718  -547.79 -2208.90
 G, KJ/KG        -30806.7 -28812.3 -18966.0
 S, KJ/(KG)(K)    10.2605  10.2605  10.2605

 M, (1/n)          24.980   25.148   25.331
 (dLV/dLP)t      -1.00752 -1.00386 -1.00001
 (dLV/dLT)p        1.1546   1.0855   1.0004
 Cp, KJ/(KG)(K)    2.7612   2.3101   1.6027
 GAMMAs            1.1809   1.1973   1.2578
 SON VEL,M/SEC     1103.1   1061.5    834.6
 MACH NUMBER        0.000    1.000    2.739

 PERFORMANCE PARAMETERS

 Ae/At                      1.0000   4.3980
 CSTAR, M/SEC               1570.2   1570.2
 CF                         0.6760   1.4555
 Ivac, M/SEC                1948.1   2527.8
 Isp, M/SEC                 1061.5   2285.5


 MOLE FRACTIONS

 *CO              0.18664  0.18376  0.16360
 *CO2             0.05887  0.06340  0.08537
 *H               0.01122  0.00688  0.00004
 *H2              0.07120  0.07213  0.09291
 H2O              0.17049  0.17594  0.16311
 *NO              0.00268  0.00114  0.00000
 *N2              0.48675  0.49081  0.49496
 *O               0.00091  0.00029  0.00000
 *OH              0.01036  0.00535  0.00000
 *O2              0.00086  0.00028  0.00000

  * THERMODYNAMIC PROPERTIES FITTED TO 20000.K

 NOTE. WEIGHT FRACTION OF FUEL IN TOTAL FUELS AND OF OXIDANT IN TOTAL OXIDANTS










              THEORETICAL ROCKET PERFORMANCE ASSUMING EQUILIBRIUM

           COMPOSITION DURING EXPANSION FROM INFINITE AREA COMBUSTOR

 Pin =   362.6 PSIA
 CASE =                

             REACTANT                    WT FRACTION      ENERGY      TEMP
                                          (SEE NOTE)     KJ/KG-MOL      K  
 FUEL        C32H66(a)                    0.9000000   -967800.000    298.150
 FUEL        stearic                      0.1000000   -912000.000    298.150
 OXIDANT     N2O(L),298.15K               1.0000000     65100.000    298.150

 O/F=    6.28570  %FUEL= 13.725517  R,EQ.RATIO= 1.481409  PHI,EQ.RATIO= 1.483779

                 CHAMBER   THROAT     EXIT
 Pinf/P            1.0000   1.7673   28.501
 P, BAR            25.000   14.146  0.87716
 T, K             3117.81  2875.90  1718.45
 RHO, KG/CU M    2.4250 0 1.4985 0 1.5681-1
 H, KJ/KG          966.94   404.70 -1660.06
 U, KJ/KG         -63.991  -539.33 -2219.42
 G, KJ/KG        -30922.3 -29010.3 -19236.6
 S, KJ/(KG)(K)    10.2281  10.2281  10.2281

 M, (1/n)          25.145   25.329   25.543
 (dLV/dLP)t      -1.00849 -1.00453 -1.00002
 (dLV/dLT)p        1.1744   1.1002   1.0005
 Cp, KJ/(KG)(K)    2.8836   2.4083   1.5991
 GAMMAs            1.1760   1.1911   1.2559
 SON VEL,M/SEC     1101.1   1060.4    838.2
 MACH NUMBER        0.000    1.000    2.735

 PERFORMANCE PARAMETERS

 Ae/At                      1.0000   4.4208
 CSTAR, M/SEC               1573.3   1573.3
 CF                         0.6740   1.4569
 Ivac, M/SEC                1950.7   2536.2
 Isp, M/SEC                 1060.4   2292.2


 MOLE FRACTIONS

 *CO              0.18011  0.17680  0.15717
 *CO2             0.06219  0.06726  0.08896
 *H               0.01145  0.00725  0.00005
 *H2              0.06533  0.06573  0.08504
 H2O              0.17221  0.17844  0.16807
 *NO              0.00326  0.00147  0.00000
 *N2              0.49126  0.49577  0.50070
 *O               0.00115  0.00040  0.00000
 *OH              0.01182  0.00642  0.00001
 *O2              0.00119  0.00044  0.00000

  * THERMODYNAMIC PROPERTIES FITTED TO 20000.K

 NOTE. WEIGHT FRACTION OF FUEL IN TOTAL FUELS AND OF OXIDANT IN TOTAL OXIDANTS










              THEORETICAL ROCKET PERFORMANCE ASSUMING EQUILIBRIUM

           COMPOSITION DURING EXPANSION FROM INFINITE AREA COMBUSTOR

 Pin =   362.6 PSIA
 CASE =                

             REACTANT                    WT FRACTION      ENERGY      TEMP
                                          (SEE NOTE)     KJ/KG-MOL      K  
 FUEL        C32H66(a)                    0.9000000   -967800.000    298.150
 FUEL        stearic                      0.1000000   -912000.000    298.150
 OXIDANT     N2O(L),298.15K               1.0000000     65100.000    298.150

 O/F=    6.42860  %FUEL= 13.461487  R,EQ.RATIO= 1.448637  PHI,EQ.RATIO= 1.450797

                 CHAMBER   THROAT     EXIT
 Pinf/P            1.0000   1.7635   28.501
 P, BAR            25.000   14.176  0.87716
 T, K             3137.11  2902.55  1749.30
 RHO, KG/CU M    2.4252 0 1.4981 0 1.5530-1
 H, KJ/KG          976.79   416.05 -1664.14
 U, KJ/KG         -54.060  -530.26 -2228.96
 G, KJ/KG        -31010.7 -29179.7 -19500.9
 S, KJ/(KG)(K)    10.1965  10.1965  10.1965

 M, (1/n)          25.303   25.502   25.751
 (dLV/dLP)t      -1.00951 -1.00528 -1.00002
 (dLV/dLT)p        1.1950   1.1167   1.0006
 Cp, KJ/(KG)(K)    3.0098   2.5179   1.5959
 GAMMAs            1.1715   1.1851   1.2540
 SON VEL,M/SEC     1098.9   1059.0    841.6
 MACH NUMBER        0.000    1.000    2.731

 PERFORMANCE PARAMETERS

 Ae/At                      1.0000   4.4449
 CSTAR, M/SEC               1575.9   1575.9
 CF                         0.6720   1.4584
 Ivac, M/SEC                1952.6   2544.0
 Isp, M/SEC                 1059.0   2298.2


 MOLE FRACTIONS

 *CO              0.17368  0.16988  0.15064
 *CO2             0.06544  0.07112  0.09272
 *H               0.01159  0.00755  0.00007
 *H2              0.06001  0.05989  0.07758
 H2O              0.17347  0.18040  0.17267
 *NO              0.00390  0.00187  0.00000
 *N2              0.49555  0.50049  0.50632
 *O               0.00143  0.00054  0.00000
 *OH              0.01329  0.00758  0.00001
 *O2              0.00162  0.00065  0.00000

  * THERMODYNAMIC PROPERTIES FITTED TO 20000.K

 NOTE. WEIGHT FRACTION OF FUEL IN TOTAL FUELS AND OF OXIDANT IN TOTAL OXIDANTS










              THEORETICAL ROCKET PERFORMANCE ASSUMING EQUILIBRIUM

           COMPOSITION DURING EXPANSION FROM INFINITE AREA COMBUSTOR

 Pin =   362.6 PSIA
 CASE =                

             REACTANT                    WT FRACTION      ENERGY      TEMP
                                          (SEE NOTE)     KJ/KG-MOL      K  
 FUEL        C32H66(a)                    0.9000000   -967800.000    298.150
 FUEL        stearic                      0.1000000   -912000.000    298.150
 OXIDANT     N2O(L),298.15K               1.0000000     65100.000    298.150

 O/F=    6.57140  %FUEL= 13.207597  R,EQ.RATIO= 1.417305  PHI,EQ.RATIO= 1.419270

                 CHAMBER   THROAT     EXIT
 Pinf/P            1.0000   1.7599   28.501
 P, BAR            25.000   14.206  0.87716
 T, K             3153.79  2926.34  1779.71
 RHO, KG/CU M    2.4266 0 1.4986 0 1.5385-1
 H, KJ/KG          986.26   427.29 -1667.38
 U, KJ/KG         -43.973  -520.67 -2237.52
 G, KJ/KG        -31073.7 -29320.6 -19759.1
 S, KJ/(KG)(K)    10.1655  10.1655  10.1655

 M, (1/n)          25.453   25.667   25.954
 (dLV/dLP)t      -1.01055 -1.00611 -1.00003
 (dLV/dLT)p        1.2160   1.1348   1.0008
 Cp, KJ/(KG)(K)    3.1371   2.6376   1.5933
 GAMMAs            1.1674   1.1793   1.2521
 SON VEL,M/SEC     1096.7   1057.3    844.9
 MACH NUMBER        0.000    1.000    2.727

 PERFORMANCE PARAMETERS

 Ae/At                      1.0000   4.4705
 CSTAR, M/SEC               1577.8   1577.8
 CF                         0.6701   1.4601
 Ivac, M/SEC                1953.9   2551.2
 Isp, M/SEC                 1057.3   2303.8


 MOLE FRACTIONS

 *CO              0.16738  0.16305  0.14402
 *CO2             0.06862  0.07494  0.09664
 *H               0.01165  0.00778  0.00009
 HO2              0.00001  0.00000  0.00000
 *H2              0.05520  0.05460  0.07053
 H2O              0.17430  0.18186  0.17691
 *N               0.00001  0.00000  0.00000
 *NO              0.00458  0.00233  0.00000
 *N2              0.49962  0.50497  0.51180
 *O               0.00173  0.00071  0.00000
 *OH              0.01475  0.00881  0.00002
 *O2              0.00214  0.00094  0.00000

  * THERMODYNAMIC PROPERTIES FITTED TO 20000.K

 NOTE. WEIGHT FRACTION OF FUEL IN TOTAL FUELS AND OF OXIDANT IN TOTAL OXIDANTS










              THEORETICAL ROCKET PERFORMANCE ASSUMING EQUILIBRIUM

           COMPOSITION DURING EXPANSION FROM INFINITE AREA COMBUSTOR

 Pin =   362.6 PSIA
 CASE =                

             REACTANT                    WT FRACTION      ENERGY      TEMP
                                          (SEE NOTE)     KJ/KG-MOL      K  
 FUEL        C32H66(a)                    0.9000000   -967800.000    298.150
 FUEL        stearic                      0.1000000   -912000.000    298.150
 OXIDANT     N2O(L),298.15K               1.0000000     65100.000    298.150

 O/F=    6.71430  %FUEL= 12.962939  R,EQ.RATIO= 1.387279  PHI,EQ.RATIO= 1.389064

                 CHAMBER   THROAT     EXIT
 Pinf/P            1.0000   1.7564   28.501
 P, BAR            25.000   14.234  0.87716
 T, K             3168.04  2947.34  1809.74
 RHO, KG/CU M    2.4292 0 1.4999 0 1.5245-1
 H, KJ/KG          995.39   438.39 -1669.76
 U, KJ/KG         -33.753  -510.60 -2245.13
 G, KJ/KG        -31113.7 -29433.8 -20012.1
 S, KJ/(KG)(K)    10.1353  10.1353  10.1353

 M, (1/n)          25.595   25.823   26.152
 (dLV/dLP)t      -1.01159 -1.00701 -1.00003
 (dLV/dLT)p        1.2370   1.1544   1.0010
 Cp, KJ/(KG)(K)    3.2629   2.7658   1.5912
 GAMMAs            1.1638   1.1739   1.2503
 SON VEL,M/SEC     1094.4   1055.5    848.2
 MACH NUMBER        0.000    1.000    2.722

 PERFORMANCE PARAMETERS

 Ae/At                      1.0000   4.4977
 CSTAR, M/SEC               1579.2   1579.2
 CF                         0.6683   1.4619
 Ivac, M/SEC                1954.6   2558.0
 Isp, M/SEC                 1055.5   2308.7


 MOLE FRACTIONS

 *CO              0.16123  0.15632  0.13728
 *CO2             0.07169  0.07868  0.10072
 *H               0.01163  0.00794  0.00010
 HO2              0.00001  0.00000  0.00000
 *H2              0.05086  0.04982  0.06389
 H2O              0.17477  0.18285  0.18081
 *N               0.00001  0.00000  0.00000
 *NO              0.00531  0.00285  0.00000
 *N2              0.50348  0.50923  0.51717
 *O               0.00205  0.00091  0.00000
 *OH              0.01618  0.01007  0.00002
 *O2              0.00276  0.00132  0.00000

  * THERMODYNAMIC PROPERTIES FITTED TO 20000.K

 NOTE. WEIGHT FRACTION OF FUEL IN TOTAL FUELS AND OF OXIDANT IN TOTAL OXIDANTS










              THEORETICAL ROCKET PERFORMANCE ASSUMING EQUILIBRIUM

           COMPOSITION DURING EXPANSION FROM INFINITE AREA COMBUSTOR

 Pin =   362.6 PSIA
 CASE =                

             REACTANT                    WT FRACTION      ENERGY      TEMP
                                          (SEE NOTE)     KJ/KG-MOL      K  
 FUEL        C32H66(a)                    0.9000000   -967800.000    298.150
 FUEL        stearic                      0.1000000   -912000.000    298.150
 OXIDANT     N2O(L),298.15K               1.0000000     65100.000    298.150

 O/F=    6.85710  %FUEL= 12.727342  R,EQ.RATIO= 1.358519  PHI,EQ.RATIO= 1.360136

                 CHAMBER   THROAT     EXIT
 Pinf/P            1.0000   1.7532   28.501
 P, BAR            25.000   14.259  0.87716
 T, K             3180.06  2965.61  1839.41
 RHO, KG/CU M    2.4328 0 1.5019 0 1.5110-1
 H, KJ/KG         1004.18   449.29 -1671.30
 U, KJ/KG         -23.454  -500.15 -2251.80
 G, KJ/KG        -31132.9 -29520.5 -20260.1
 S, KJ/(KG)(K)    10.1058  10.1058  10.1058

 M, (1/n)          25.730   25.971   26.346
 (dLV/dLP)t      -1.01261 -1.00797 -1.00004
 (dLV/dLT)p        1.2575   1.1750   1.0013
 Cp, KJ/(KG)(K)    3.3845   2.8993   1.5898
 GAMMAs            1.1606   1.1689   1.2484
 SON VEL,M/SEC     1092.1   1053.5    851.3
 MACH NUMBER        0.000    1.000    2.717

 PERFORMANCE PARAMETERS

 Ae/At                      1.0000   4.5265
 CSTAR, M/SEC               1580.1   1580.1
 CF                         0.6667   1.4640
 Ivac, M/SEC                1954.7   2564.2
 Isp, M/SEC                 1053.5   2313.2


 MOLE FRACTIONS

 *CO              0.15526  0.14974  0.13044
 *CO2             0.07464  0.08230  0.10497
 *H               0.01155  0.00803  0.00013
 HO2              0.00001  0.00000  0.00000
 *H2              0.04694  0.04553  0.05766
 H2O              0.17492  0.18343  0.18436
 *N               0.00001  0.00000  0.00000
 *NO              0.00607  0.00342  0.00000
 *N2              0.50714  0.51325  0.52241
 *O               0.00239  0.00113  0.00000
 *OH              0.01756  0.01134  0.00003
 *O2              0.00349  0.00180  0.00000

  * THERMODYNAMIC PROPERTIES FITTED TO 20000.K

 NOTE. WEIGHT FRACTION OF FUEL IN TOTAL FUELS AND OF OXIDANT IN TOTAL OXIDANTS










              THEORETICAL ROCKET PERFORMANCE ASSUMING EQUILIBRIUM

           COMPOSITION DURING EXPANSION FROM INFINITE AREA COMBUSTOR

 Pin =   362.6 PSIA
 CASE =                

             REACTANT                    WT FRACTION      ENERGY      TEMP
                                          (SEE NOTE)     KJ/KG-MOL      K  
 FUEL        C32H66(a)                    0.9000000   -967800.000    298.150
 FUEL        stearic                      0.1000000   -912000.000    298.150
 OXIDANT     N2O(L),298.15K               1.0000000     65100.000    298.150

 O/F=    7.00000  %FUEL= 12.500000  R,EQ.RATIO= 1.330907  PHI,EQ.RATIO= 1.332370

                 CHAMBER   THROAT     EXIT
 Pinf/P            1.0000   1.7503   28.501
 P, BAR            25.000   14.283  0.87716
 T, K             3190.07  2981.30  1868.79
 RHO, KG/CU M    2.4372 0 1.5045 0 1.4980-1
 H, KJ/KG         1012.67   459.99 -1672.00
 U, KJ/KG         -13.100  -489.36 -2257.55
 G, KJ/KG        -31133.5 -29582.5 -20503.7
 S, KJ/(KG)(K)    10.0770  10.0770  10.0770

 M, (1/n)          25.858   26.110   26.536
 (dLV/dLP)t      -1.01360 -1.00895 -1.00005
 (dLV/dLT)p        1.2771   1.1961   1.0016
 Cp, KJ/(KG)(K)    3.4998   3.0351   1.5891
 GAMMAs            1.1578   1.1644   1.2465
 SON VEL,M/SEC     1089.8   1051.4    854.3
 MACH NUMBER        0.000    1.000    2.712

 PERFORMANCE PARAMETERS

 Ae/At                      1.0000   4.5570
 CSTAR, M/SEC               1580.5   1580.5
 CF                         0.6652   1.4661
 Ivac, M/SEC                1954.3   2569.9
 Isp, M/SEC                 1051.4   2317.2


 MOLE FRACTIONS

 *CO              0.14945  0.14334  0.12348
 *CO2             0.07746  0.08579  0.10938
 *H               0.01142  0.00806  0.00015
 HO2              0.00001  0.00000  0.00000
 *H2              0.04341  0.04167  0.05181
 H2O              0.17479  0.18363  0.18758
 *N               0.00001  0.00000  0.00000
 *NO              0.00685  0.00404  0.00000
 *N2              0.51063  0.51707  0.52754
 *O               0.00275  0.00137  0.00000
 *OH              0.01888  0.01260  0.00005
 *O2              0.00433  0.00240  0.00000

  * THERMODYNAMIC PROPERTIES FITTED TO 20000.K

 NOTE. WEIGHT FRACTION OF FUEL IN TOTAL FUELS AND OF OXIDANT IN TOTAL OXIDANTS










              THEORETICAL ROCKET PERFORMANCE ASSUMING EQUILIBRIUM

           COMPOSITION DURING EXPANSION FROM INFINITE AREA COMBUSTOR

 Pin =   362.6 PSIA
 CASE =                

             REACTANT                    WT FRACTION      ENERGY      TEMP
                                          (SEE NOTE)     KJ/KG-MOL      K  
 FUEL        C32H66(a)                    0.9000000   -967800.000    298.150
 FUEL        stearic                      0.1000000   -912000.000    298.150
 OXIDANT     N2O(L),298.15K               1.0000000     65100.000    298.150

 O/F=    7.14290  %FUEL= 12.280637  R,EQ.RATIO= 1.304396  PHI,EQ.RATIO= 1.305715

                 CHAMBER   THROAT     EXIT
 Pinf/P            1.0000   1.7477   28.501
 P, BAR            25.000   14.304  0.87716
 T, K             3198.26  2994.56  1897.88
 RHO, KG/CU M    2.4424 0 1.5076 0 1.4853-1
 H, KJ/KG         1020.85   470.41 -1671.83
 U, KJ/KG         -2.7319  -478.36 -2262.37
 G, KJ/KG        -31117.8 -29621.4 -20743.3
 S, KJ/(KG)(K)    10.0488  10.0488  10.0488

 M, (1/n)          25.979   26.243   26.721
 (dLV/dLP)t      -1.01452 -1.00994 -1.00006
 (dLV/dLT)p        1.2957   1.2173   1.0020
 Cp, KJ/(KG)(K)    3.6068   3.1695   1.5894
 GAMMAs            1.1553   1.1603   1.2445
 SON VEL,M/SEC     1087.5   1049.2    857.3
 MACH NUMBER        0.000    1.000    2.707

 PERFORMANCE PARAMETERS

 Ae/At                      1.0000   4.5892
 CSTAR, M/SEC               1580.4   1580.4
 CF                         0.6639   1.4684
 Ivac, M/SEC                1953.5   2575.1
 Isp, M/SEC                 1049.2   2320.6


 MOLE FRACTIONS

 *CO              0.14384  0.13714  0.11642
 *CO2             0.08014  0.08911  0.11395
 *H               0.01124  0.00804  0.00018
 HO2              0.00001  0.00000  0.00000
 *H2              0.04022  0.03822  0.04634
 H2O              0.17443  0.18353  0.19046
 *N               0.00001  0.00000  0.00000
 *NO              0.00766  0.00469  0.00001
 *N2              0.51394  0.52068  0.53256
 *O               0.00311  0.00164  0.00000
 *OH              0.02012  0.01383  0.00007
 *O2              0.00527  0.00311  0.00000

  * THERMODYNAMIC PROPERTIES FITTED TO 20000.K

 NOTE. WEIGHT FRACTION OF FUEL IN TOTAL FUELS AND OF OXIDANT IN TOTAL OXIDANTS










              THEORETICAL ROCKET PERFORMANCE ASSUMING EQUILIBRIUM

           COMPOSITION DURING EXPANSION FROM INFINITE AREA COMBUSTOR

 Pin =   362.6 PSIA
 CASE =                

             REACTANT                    WT FRACTION      ENERGY      TEMP
                                          (SEE NOTE)     KJ/KG-MOL      K  
 FUEL        C32H66(a)                    0.9000000   -967800.000    298.150
 FUEL        stearic                      0.1000000   -912000.000    298.150
 OXIDANT     N2O(L),298.15K               1.0000000     65100.000    298.150

 O/F=    7.28570  %FUEL= 12.068986  R,EQ.RATIO= 1.278938  PHI,EQ.RATIO= 1.280123

                 CHAMBER   THROAT     EXIT
 Pinf/P            1.0000   1.7455   28.501
 P, BAR            25.000   14.322  0.87716
 T, K             3204.82  3005.59  1926.70
 RHO, KG/CU M    2.4482 0 1.5112 0 1.4731-1
 H, KJ/KG         1028.75   480.55 -1670.81
 U, KJ/KG          7.6090  -467.20 -2266.28
 G, KJ/KG        -31087.8 -29639.5 -20978.9
 S, KJ/(KG)(K)    10.0213  10.0213  10.0213

 M, (1/n)          26.095   26.368   26.903
 (dLV/dLP)t      -1.01538 -1.01090 -1.00008
 (dLV/dLT)p        1.3127   1.2379   1.0025
 Cp, KJ/(KG)(K)    3.7041   3.2989   1.5908
 GAMMAs            1.1532   1.1568   1.2425
 SON VEL,M/SEC     1085.2   1047.1    860.2
 MACH NUMBER        0.000    1.000    2.701

 PERFORMANCE PARAMETERS

 Ae/At                      1.0000   4.6230
 CSTAR, M/SEC               1579.9   1579.9
 CF                         0.6627   1.4707
 Ivac, M/SEC                1952.2   2579.9
 Isp, M/SEC                 1047.1   2323.6


 MOLE FRACTIONS

 *CO              0.13842  0.13115  0.10926
 *CO2             0.08268  0.09226  0.11868
 *H               0.01102  0.00797  0.00021
 HO2              0.00001  0.00001  0.00000
 *H2              0.03734  0.03512  0.04125
 H2O              0.17388  0.18315  0.19302
 *N               0.00001  0.00000  0.00000
 *NO              0.00846  0.00537  0.00001
 *N2              0.51709  0.52409  0.53747
 *O               0.00347  0.00191  0.00000
 *OH              0.02128  0.01501  0.00010
 *O2              0.00632  0.00395  0.00000

  * THERMODYNAMIC PROPERTIES FITTED TO 20000.K

 NOTE. WEIGHT FRACTION OF FUEL IN TOTAL FUELS AND OF OXIDANT IN TOTAL OXIDANTS










              THEORETICAL ROCKET PERFORMANCE ASSUMING EQUILIBRIUM

           COMPOSITION DURING EXPANSION FROM INFINITE AREA COMBUSTOR

 Pin =   362.6 PSIA
 CASE =                

             REACTANT                    WT FRACTION      ENERGY      TEMP
                                          (SEE NOTE)     KJ/KG-MOL      K  
 FUEL        C32H66(a)                    0.9000000   -967800.000    298.150
 FUEL        stearic                      0.1000000   -912000.000    298.150
 OXIDANT     N2O(L),298.15K               1.0000000     65100.000    298.150

 O/F=    7.42860  %FUEL= 11.864367  R,EQ.RATIO= 1.254438  PHI,EQ.RATIO= 1.255498

                 CHAMBER   THROAT     EXIT
 Pinf/P            1.0000   1.7436   28.501
 P, BAR            25.000   14.338  0.87716
 T, K             3209.94  3014.60  1955.28
 RHO, KG/CU M    2.4546 0 1.5151 0 1.4611-1
 H, KJ/KG         1036.39   490.43 -1668.92
 U, KJ/KG          17.909  -455.92 -2269.26
 G, KJ/KG        -31045.3 -29638.9 -21210.9
 S, KJ/(KG)(K)     9.9945   9.9945   9.9945

 M, (1/n)          26.205   26.486   27.080
 (dLV/dLP)t      -1.01615 -1.01182 -1.00010
 (dLV/dLT)p        1.3282   1.2576   1.0031
 Cp, KJ/(KG)(K)    3.7910   3.4205   1.5937
 GAMMAs            1.1514   1.1538   1.2403
 SON VEL,M/SEC     1082.9   1045.0    862.9
 MACH NUMBER        0.000    1.000    2.696

 PERFORMANCE PARAMETERS

 Ae/At                      1.0000   4.6584
 CSTAR, M/SEC               1579.1   1579.1
 CF                         0.6618   1.4731
 Ivac, M/SEC                1950.6   2584.2
 Isp, M/SEC                 1044.9   2326.1


 MOLE FRACTIONS

 *CO              0.13319  0.12539  0.10200
 *CO2             0.08507  0.09522  0.12355
 *H               0.01077  0.00785  0.00024
 HO2              0.00001  0.00001  0.00000
 *H2              0.03473  0.03235  0.03651
 H2O              0.17316  0.18254  0.19527
 *N               0.00001  0.00000  0.00000
 *NO              0.00928  0.00607  0.00001
 *N2              0.52010  0.52734  0.54227
 *O               0.00383  0.00220  0.00000
 *OH              0.02235  0.01612  0.00014
 *O2              0.00746  0.00490  0.00000

  * THERMODYNAMIC PROPERTIES FITTED TO 20000.K

 NOTE. WEIGHT FRACTION OF FUEL IN TOTAL FUELS AND OF OXIDANT IN TOTAL OXIDANTS










              THEORETICAL ROCKET PERFORMANCE ASSUMING EQUILIBRIUM

           COMPOSITION DURING EXPANSION FROM INFINITE AREA COMBUSTOR

 Pin =   362.6 PSIA
 CASE =                

             REACTANT                    WT FRACTION      ENERGY      TEMP
                                          (SEE NOTE)     KJ/KG-MOL      K  
 FUEL        C32H66(a)                    0.9000000   -967800.000    298.150
 FUEL        stearic                      0.1000000   -912000.000    298.150
 OXIDANT     N2O(L),298.15K               1.0000000     65100.000    298.150

 O/F=    7.57140  %FUEL= 11.666706  R,EQ.RATIO= 1.230875  PHI,EQ.RATIO= 1.231819

                 CHAMBER   THROAT     EXIT
 Pinf/P            1.0000   1.7419   28.501
 P, BAR            25.000   14.352  0.87716
 T, K             3213.77  3021.78  1983.60
 RHO, KG/CU M    2.4615 0 1.5193 0 1.4495-1
 H, KJ/KG         1043.76   500.02 -1666.14
 U, KJ/KG          28.128  -444.60 -2271.31
 G, KJ/KG        -30992.1 -29622.0 -21439.2
 S, KJ/(KG)(K)     9.9683   9.9683   9.9683

 M, (1/n)          26.310   26.598   27.253
 (dLV/dLP)t      -1.01684 -1.01268 -1.00013
 (dLV/dLT)p        1.3420   1.2758   1.0039
 Cp, KJ/(KG)(K)    3.8669   3.5319   1.5985
 GAMMAs            1.1499   1.1513   1.2380
 SON VEL,M/SEC     1080.7   1042.8    865.5
 MACH NUMBER        0.000    1.000    2.690

 PERFORMANCE PARAMETERS

 Ae/At                      1.0000   4.6954
 CSTAR, M/SEC               1577.9   1577.9
 CF                         0.6609   1.4754
 Ivac, M/SEC                1948.7   2588.0
 Isp, M/SEC                 1042.8   2328.0


 MOLE FRACTIONS

 *CO              0.12816  0.11986  0.09466
 *CO2             0.08733  0.09799  0.12856
 *H               0.01051  0.00771  0.00028
 HO2              0.00002  0.00001  0.00000
 *H2              0.03237  0.02986  0.03212
 H2O              0.17231  0.18174  0.19721
 *N               0.00001  0.00000  0.00000
 *NO              0.01009  0.00679  0.00002
 NO2              0.00001  0.00000  0.00000
 *N2              0.52297  0.53041  0.54696
 *O               0.00419  0.00249  0.00000
 *OH              0.02333  0.01716  0.00019
 *O2              0.00870  0.00598  0.00000

  * THERMODYNAMIC PROPERTIES FITTED TO 20000.K

 NOTE. WEIGHT FRACTION OF FUEL IN TOTAL FUELS AND OF OXIDANT IN TOTAL OXIDANTS










              THEORETICAL ROCKET PERFORMANCE ASSUMING EQUILIBRIUM

           COMPOSITION DURING EXPANSION FROM INFINITE AREA COMBUSTOR

 Pin =   362.6 PSIA
 CASE =                

             REACTANT                    WT FRACTION      ENERGY      TEMP
                                          (SEE NOTE)     KJ/KG-MOL      K  
 FUEL        C32H66(a)                    0.9000000   -967800.000    298.150
 FUEL        stearic                      0.1000000   -912000.000    298.150
 OXIDANT     N2O(L),298.15K               1.0000000     65100.000    298.150

 O/F=    7.71430  %FUEL= 11.475391  R,EQ.RATIO= 1.208165  PHI,EQ.RATIO= 1.209000

                 CHAMBER   THROAT     EXIT
 Pinf/P            1.0000   1.7405   28.501
 P, BAR            25.000   14.363  0.87716
 T, K             3216.46  3027.33  2011.68
 RHO, KG/CU M    2.4688 0 1.5238 0 1.4381-1
 H, KJ/KG         1050.90   509.34 -1662.47
 U, KJ/KG          38.261  -433.26 -2272.41
 G, KJ/KG        -30929.5 -29590.6 -21664.0
 S, KJ/(KG)(K)     9.9427   9.9427   9.9427

 M, (1/n)          26.409   26.704   27.423
 (dLV/dLP)t      -1.01745 -1.01346 -1.00016
 (dLV/dLT)p        1.3540   1.2923   1.0050
 Cp, KJ/(KG)(K)    3.9320   3.6313   1.6059
 GAMMAs            1.1486   1.1491   1.2354
 SON VEL,M/SEC     1078.5   1040.7    868.0
 MACH NUMBER        0.000    1.000    2.684

 PERFORMANCE PARAMETERS

 Ae/At                      1.0000   4.7338
 CSTAR, M/SEC               1576.4   1576.4
 CF                         0.6602   1.4777
 Ivac, M/SEC                1946.4   2591.4
 Isp, M/SEC                 1040.7   2329.5


 MOLE FRACTIONS

 *CO              0.12331  0.11456  0.08723
 *CO2             0.08944  0.10057  0.13369
 *H               0.01023  0.00754  0.00032
 HO2              0.00002  0.00001  0.00000
 *H2              0.03022  0.02762  0.02806
 H2O              0.17134  0.18080  0.19885
 *N               0.00001  0.00000  0.00000
 *NO              0.01089  0.00750  0.00003
 NO2              0.00001  0.00000  0.00000
 *N2              0.52573  0.53334  0.55154
 *O               0.00453  0.00277  0.00000
 *OH              0.02423  0.01811  0.00026
 *O2              0.01003  0.00717  0.00001

  * THERMODYNAMIC PROPERTIES FITTED TO 20000.K

 NOTE. WEIGHT FRACTION OF FUEL IN TOTAL FUELS AND OF OXIDANT IN TOTAL OXIDANTS










              THEORETICAL ROCKET PERFORMANCE ASSUMING EQUILIBRIUM

           COMPOSITION DURING EXPANSION FROM INFINITE AREA COMBUSTOR

 Pin =   362.6 PSIA
 CASE =                

             REACTANT                    WT FRACTION      ENERGY      TEMP
                                          (SEE NOTE)     KJ/KG-MOL      K  
 FUEL        C32H66(a)                    0.9000000   -967800.000    298.150
 FUEL        stearic                      0.1000000   -912000.000    298.150
 OXIDANT     N2O(L),298.15K               1.0000000     65100.000    298.150

 O/F=    7.85710  %FUEL= 11.290377  R,EQ.RATIO= 1.186293  PHI,EQ.RATIO= 1.187027

                 CHAMBER   THROAT     EXIT
 Pinf/P            1.0000   1.7394   28.501
 P, BAR            25.000   14.373  0.87716
 T, K             3218.15  3031.45  2039.44
 RHO, KG/CU M    2.4764 0 1.5285 0 1.4271-1
 H, KJ/KG         1057.81   518.39 -1657.89
 U, KJ/KG          48.275  -421.95 -2272.54
 G, KJ/KG        -30859.1 -29546.8 -21884.6
 S, KJ/(KG)(K)     9.9178   9.9178   9.9178

 M, (1/n)          26.505   26.804   27.588
 (dLV/dLP)t      -1.01796 -1.01415 -1.00020
 (dLV/dLT)p        1.3643   1.3069   1.0064
 Cp, KJ/(KG)(K)    3.9863   3.7178   1.6171
 GAMMAs            1.1475   1.1473   1.2324
 SON VEL,M/SEC     1076.3   1038.7    870.3
 MACH NUMBER        0.000    1.000    2.678

 PERFORMANCE PARAMETERS

 Ae/At                      1.0000   4.7735
 CSTAR, M/SEC               1574.7   1574.7
 CF                         0.6596   1.4800
 Ivac, M/SEC                1944.0   2594.3
 Isp, M/SEC                 1038.7   2330.5


 MOLE FRACTIONS

 *CO              0.11866  0.10949  0.07975
 *CO2             0.09142  0.10297  0.13893
 *H               0.00994  0.00734  0.00035
 HO2              0.00002  0.00001  0.00000
 *H2              0.02826  0.02560  0.02433
 H2O              0.17029  0.17972  0.20021
 *N               0.00001  0.00000  0.00000
 *NO              0.01168  0.00821  0.00005
 NO2              0.00001  0.00000  0.00000
 *N2              0.52836  0.53613  0.55602
 *O               0.00486  0.00306  0.00000
 *OH              0.02504  0.01898  0.00035
 *O2              0.01144  0.00847  0.00001

  * THERMODYNAMIC PROPERTIES FITTED TO 20000.K

 NOTE. WEIGHT FRACTION OF FUEL IN TOTAL FUELS AND OF OXIDANT IN TOTAL OXIDANTS










              THEORETICAL ROCKET PERFORMANCE ASSUMING EQUILIBRIUM

           COMPOSITION DURING EXPANSION FROM INFINITE AREA COMBUSTOR

 Pin =   362.6 PSIA
 CASE =                

             REACTANT                    WT FRACTION      ENERGY      TEMP
                                          (SEE NOTE)     KJ/KG-MOL      K  
 FUEL        C32H66(a)                    0.9000000   -967800.000    298.150
 FUEL        stearic                      0.1000000   -912000.000    298.150
 OXIDANT     N2O(L),298.15K               1.0000000     65100.000    298.150

 O/F=    8.00000  %FUEL= 11.111111  R,EQ.RATIO= 1.165185  PHI,EQ.RATIO= 1.165824

                 CHAMBER   THROAT     EXIT
 Pinf/P            1.0000   1.7384   28.501
 P, BAR            25.000   14.381  0.87716
 T, K             3218.95  3034.28  2066.84
 RHO, KG/CU M    2.4843 0 1.5333 0 1.4164-1
 H, KJ/KG         1064.49   527.20 -1652.36
 U, KJ/KG          58.172  -410.70 -2271.65
 G, KJ/KG        -30781.9 -29492.2 -22100.5
 S, KJ/(KG)(K)     9.8934   9.8934   9.8934

 M, (1/n)          26.596   26.899   27.749
 (dLV/dLP)t      -1.01839 -1.01474 -1.00027
 (dLV/dLT)p        1.3729   1.3195   1.0083
 Cp, KJ/(KG)(K)    4.0305   3.7910   1.6336
 GAMMAs            1.1465   1.1458   1.2288
 SON VEL,M/SEC     1074.2   1036.6    872.4
 MACH NUMBER        0.000    1.000    2.672

 PERFORMANCE PARAMETERS

 Ae/At                      1.0000   4.8143
 CSTAR, M/SEC               1572.8   1572.8
 CF                         0.6591   1.4821
 Ivac, M/SEC                1941.4   2596.7
 Isp, M/SEC                 1036.6   2331.0


 MOLE FRACTIONS

 *CO              0.11418  0.10464  0.07221
 *CO2             0.09327  0.10519  0.14425
 *H               0.00964  0.00714  0.00039
 HO2              0.00002  0.00001  0.00000
 *H2              0.02648  0.02377  0.02090
 H2O              0.16916  0.17855  0.20128
 *N               0.00001  0.00000  0.00000
 *NO              0.01245  0.00892  0.00008
 NO2              0.00001  0.00000  0.00000
 *N2              0.53089  0.53879  0.56039
 *O               0.00518  0.00333  0.00001
 *OH              0.02577  0.01977  0.00048
 *O2              0.01292  0.00987  0.00002

  * THERMODYNAMIC PROPERTIES FITTED TO 20000.K

 NOTE. WEIGHT FRACTION OF FUEL IN TOTAL FUELS AND OF OXIDANT IN TOTAL OXIDANTS










              THEORETICAL ROCKET PERFORMANCE ASSUMING EQUILIBRIUM

           COMPOSITION DURING EXPANSION FROM INFINITE AREA COMBUSTOR

 Pin =   362.6 PSIA
 CASE =                

             REACTANT                    WT FRACTION      ENERGY      TEMP
                                          (SEE NOTE)     KJ/KG-MOL      K  
 FUEL        C32H66(a)                    0.9000000   -967800.000    298.150
 FUEL        stearic                      0.1000000   -912000.000    298.150
 OXIDANT     N2O(L),298.15K               1.0000000     65100.000    298.150

 O/F=    8.14290  %FUEL= 10.937449  R,EQ.RATIO= 1.144814  PHI,EQ.RATIO= 1.145365

                 CHAMBER   THROAT     EXIT
 Pinf/P            1.0000   1.7376   28.501
 P, BAR            25.000   14.388  0.87716
 T, K             3218.96  3035.99  2093.74
 RHO, KG/CU M    2.4924 0 1.5383 0 1.4061-1
 H, KJ/KG         1070.98   535.75 -1645.86
 U, KJ/KG          67.933  -399.52 -2269.68
 G, KJ/KG        -30698.9 -29428.3 -22310.2
 S, KJ/(KG)(K)     9.8696   9.8696   9.8696

 M, (1/n)          26.683   26.990   27.906
 (dLV/dLP)t      -1.01873 -1.01524 -1.00035
 (dLV/dLT)p        1.3799   1.3301   1.0112
 Cp, KJ/(KG)(K)    4.0651   3.8511   1.6583
 GAMMAs            1.1458   1.1445   1.2245
 SON VEL,M/SEC     1072.0   1034.6    874.0
 MACH NUMBER        0.000    1.000    2.667

 PERFORMANCE PARAMETERS

 Ae/At                      1.0000   4.8559
 CSTAR, M/SEC               1570.7   1570.7
 CF                         0.6587   1.4840
 Ivac, M/SEC                1938.6   2598.6
 Isp, M/SEC                 1034.6   2331.0


 MOLE FRACTIONS

 *CO              0.10989  0.10001  0.06466
 *CO2             0.09500  0.10724  0.14962
 *H               0.00934  0.00692  0.00043
 HNO              0.00001  0.00000  0.00000
 HO2              0.00002  0.00001  0.00000
 *H2              0.02484  0.02212  0.01776
 H2O              0.16797  0.17730  0.20207
 *N               0.00001  0.00000  0.00000
 *NO              0.01321  0.00961  0.00012
 NO2              0.00001  0.00000  0.00000
 *N2              0.53332  0.54134  0.56463
 *O               0.00548  0.00359  0.00001
 *OH              0.02642  0.02048  0.00064
 *O2              0.01447  0.01136  0.00005

  * THERMODYNAMIC PROPERTIES FITTED TO 20000.K

 NOTE. WEIGHT FRACTION OF FUEL IN TOTAL FUELS AND OF OXIDANT IN TOTAL OXIDANTS










              THEORETICAL ROCKET PERFORMANCE ASSUMING EQUILIBRIUM

           COMPOSITION DURING EXPANSION FROM INFINITE AREA COMBUSTOR

 Pin =   362.6 PSIA
 CASE =                

             REACTANT                    WT FRACTION      ENERGY      TEMP
                                          (SEE NOTE)     KJ/KG-MOL      K  
 FUEL        C32H66(a)                    0.9000000   -967800.000    298.150
 FUEL        stearic                      0.1000000   -912000.000    298.150
 OXIDANT     N2O(L),298.15K               1.0000000     65100.000    298.150

 O/F=    8.28570  %FUEL= 10.769247  R,EQ.RATIO= 1.125158  PHI,EQ.RATIO= 1.125625

                 CHAMBER   THROAT     EXIT
 Pinf/P            1.0000   1.7370   28.501
 P, BAR            25.000   14.393  0.87716
 T, K             3218.28  3036.71  2119.84
 RHO, KG/CU M    2.5007 0 1.5435 0 1.3963-1
 H, KJ/KG         1077.25   544.07 -1638.35
 U, KJ/KG          77.544  -388.45 -2266.54
 G, KJ/KG        -30611.1 -29356.5 -22511.1
 S, KJ/(KG)(K)     9.8464   9.8464   9.8464

 M, (1/n)          26.766   27.076   28.058
 (dLV/dLP)t      -1.01900 -1.01564 -1.00049
 (dLV/dLT)p        1.3855   1.3387   1.0154
 Cp, KJ/(KG)(K)    4.0908   3.8984   1.6958
 GAMMAs            1.1452   1.1435   1.2190
 SON VEL,M/SEC     1070.0   1032.6    875.1
 MACH NUMBER        0.000    1.000    2.663

 PERFORMANCE PARAMETERS

 Ae/At                      1.0000   4.8979
 CSTAR, M/SEC               1568.5   1568.5
 CF                         0.6584   1.4858
 Ivac, M/SEC                1935.7   2600.0
 Isp, M/SEC                 1032.6   2330.5


 MOLE FRACTIONS

 *CO              0.10576  0.09558  0.05714
 *CO2             0.09660  0.10912  0.15499
 *H               0.00903  0.00669  0.00046
 HNO              0.00001  0.00000  0.00000
 HO2              0.00003  0.00001  0.00000
 *H2              0.02334  0.02062  0.01492
 H2O              0.16674  0.17599  0.20258
 *N               0.00001  0.00000  0.00000
 *NO              0.01395  0.01029  0.00019
 NO2              0.00001  0.00001  0.00000
 *N2              0.53566  0.54378  0.56874
 *O               0.00577  0.00384  0.00002
 *OH              0.02699  0.02111  0.00086
 *O2              0.01609  0.01294  0.00010

  * THERMODYNAMIC PROPERTIES FITTED TO 20000.K

 NOTE. WEIGHT FRACTION OF FUEL IN TOTAL FUELS AND OF OXIDANT IN TOTAL OXIDANTS










              THEORETICAL ROCKET PERFORMANCE ASSUMING EQUILIBRIUM

           COMPOSITION DURING EXPANSION FROM INFINITE AREA COMBUSTOR

 Pin =   362.6 PSIA
 CASE =                

             REACTANT                    WT FRACTION      ENERGY      TEMP
                                          (SEE NOTE)     KJ/KG-MOL      K  
 FUEL        C32H66(a)                    0.9000000   -967800.000    298.150
 FUEL        stearic                      0.1000000   -912000.000    298.150
 OXIDANT     N2O(L),298.15K               1.0000000     65100.000    298.150

 O/F=    8.42860  %FUEL= 10.606028  R,EQ.RATIO= 1.106151  PHI,EQ.RATIO= 1.106541

                 CHAMBER   THROAT     EXIT
 Pinf/P            1.0000   1.7365   28.501
 P, BAR            25.000   14.397  0.87716
 T, K             3216.98  3036.55  2144.73
 RHO, KG/CU M    2.5092 0 1.5487 0 1.3873-1
 H, KJ/KG         1083.34   552.17 -1629.81
 U, KJ/KG          87.011  -377.48 -2262.08
 G, KJ/KG        -30519.2 -29277.9 -22699.0
 S, KJ/(KG)(K)     9.8237   9.8237   9.8237

 M, (1/n)          26.846   27.158   28.204
 (dLV/dLP)t      -1.01919 -1.01595 -1.00069
 (dLV/dLT)p        1.3896   1.3453   1.0218
 Cp, KJ/(KG)(K)    4.1084   3.9338   1.7535
 GAMMAs            1.1446   1.1427   1.2119
 SON VEL,M/SEC     1067.9   1030.7    875.4
 MACH NUMBER        0.000    1.000    2.661

 PERFORMANCE PARAMETERS

 Ae/At                      1.0000   4.9393
 CSTAR, M/SEC               1566.2   1566.2
 CF                         0.6581   1.4873
 Ivac, M/SEC                1932.7   2600.9
 Isp, M/SEC                 1030.7   2329.4


 MOLE FRACTIONS

 *CO              0.10180  0.09136  0.04972
 *CO2             0.09809  0.11085  0.16028
 *H               0.00873  0.00646  0.00049
 HNO              0.00001  0.00000  0.00000
 HO2              0.00003  0.00002  0.00000
 *H2              0.02197  0.01925  0.01235
 H2O              0.16547  0.17464  0.20280
 *N               0.00001  0.00000  0.00000
 *NO              0.01466  0.01095  0.00029
 NO2              0.00001  0.00001  0.00000
 *N2              0.53792  0.54612  0.57270
 *O               0.00604  0.00408  0.00003
 *OH              0.02749  0.02166  0.00114
 *O2              0.01776  0.01459  0.00020

  * THERMODYNAMIC PROPERTIES FITTED TO 20000.K

 NOTE. WEIGHT FRACTION OF FUEL IN TOTAL FUELS AND OF OXIDANT IN TOTAL OXIDANTS










              THEORETICAL ROCKET PERFORMANCE ASSUMING EQUILIBRIUM

           COMPOSITION DURING EXPANSION FROM INFINITE AREA COMBUSTOR

 Pin =   362.6 PSIA
 CASE =                

             REACTANT                    WT FRACTION      ENERGY      TEMP
                                          (SEE NOTE)     KJ/KG-MOL      K  
 FUEL        C32H66(a)                    0.9000000   -967800.000    298.150
 FUEL        stearic                      0.1000000   -912000.000    298.150
 OXIDANT     N2O(L),298.15K               1.0000000     65100.000    298.150

 O/F=    8.57140  %FUEL= 10.447792  R,EQ.RATIO= 1.087789  PHI,EQ.RATIO= 1.088106

                 CHAMBER   THROAT     EXIT
 Pinf/P            1.0000   1.7361   28.501
 P, BAR            25.000   14.400  0.87716
 T, K             3215.13  3035.62  2167.62
 RHO, KG/CU M    2.5178 0 1.5540 0 1.3794-1
 H, KJ/KG         1089.25   560.05 -1620.19
 U, KJ/KG          96.317  -366.65 -2256.10
 G, KJ/KG        -30423.9 -29193.6 -22866.2
 S, KJ/(KG)(K)     9.8015   9.8015   9.8015

 M, (1/n)          26.923   27.236   28.342
 (dLV/dLP)t      -1.01932 -1.01618 -1.00101
 (dLV/dLT)p        1.3924   1.3503   1.0318
 Cp, KJ/(KG)(K)    4.1187   3.9582   1.8421
 GAMMAs            1.1442   1.1421   1.2027
 SON VEL,M/SEC     1065.9   1028.8    874.5
 MACH NUMBER        0.000    1.000    2.662

 PERFORMANCE PARAMETERS

 Ae/At                      1.0000   4.9788
 CSTAR, M/SEC               1563.8   1563.8
 CF                         0.6579   1.4886
 Ivac, M/SEC                1929.6   2601.0
 Isp, M/SEC                 1028.8   2327.8


 MOLE FRACTIONS

 *CO              0.09799  0.08734  0.04251
 *CO2             0.09948  0.11244  0.16538
 *H               0.00843  0.00623  0.00050
 HNO              0.00001  0.00000  0.00000
 HO2              0.00003  0.00002  0.00000
 *H2              0.02070  0.01801  0.01008
 H2O              0.16418  0.17325  0.20271
 *N               0.00001  0.00000  0.00000
 *NO              0.01536  0.01159  0.00044
 NO2              0.00001  0.00001  0.00000
 *N2              0.54009  0.54837  0.57645
 *O               0.00629  0.00430  0.00005
 *OH              0.02793  0.02214  0.00150
 *O2              0.01948  0.01632  0.00040

  * THERMODYNAMIC PROPERTIES FITTED TO 20000.K

 NOTE. WEIGHT FRACTION OF FUEL IN TOTAL FUELS AND OF OXIDANT IN TOTAL OXIDANTS










              THEORETICAL ROCKET PERFORMANCE ASSUMING EQUILIBRIUM

           COMPOSITION DURING EXPANSION FROM INFINITE AREA COMBUSTOR

 Pin =   362.6 PSIA
 CASE =                

             REACTANT                    WT FRACTION      ENERGY      TEMP
                                          (SEE NOTE)     KJ/KG-MOL      K  
 FUEL        C32H66(a)                    0.9000000   -967800.000    298.150
 FUEL        stearic                      0.1000000   -912000.000    298.150
 OXIDANT     N2O(L),298.15K               1.0000000     65100.000    298.150

 O/F=    8.71430  %FUEL= 10.294103  R,EQ.RATIO= 1.070014  PHI,EQ.RATIO= 1.070263

                 CHAMBER   THROAT     EXIT
 Pinf/P            1.0000   1.7358   28.501
 P, BAR            25.000   14.403  0.87716
 T, K             3212.80  3034.00  2187.38
 RHO, KG/CU M    2.5265 0 1.5593 0 1.3731-1
 H, KJ/KG         1094.98   567.72 -1609.47
 U, KJ/KG          105.47  -355.95 -2248.30
 G, KJ/KG        -30325.7 -29104.4 -23001.8
 S, KJ/(KG)(K)     9.7799   9.7799   9.7799

 M, (1/n)          26.996   27.311   28.469
 (dLV/dLP)t      -1.01940 -1.01632 -1.00150
 (dLV/dLT)p        1.3941   1.3536   1.0466
 Cp, KJ/(KG)(K)    4.1224   3.9726   1.9721
 GAMMAs            1.1439   1.1417   1.1915
 SON VEL,M/SEC     1063.9   1026.9    872.4
 MACH NUMBER        0.000    1.000    2.666

 PERFORMANCE PARAMETERS

 Ae/At                      1.0000   5.0143
 CSTAR, M/SEC               1561.3   1561.3
 CF                         0.6577   1.4896
 Ivac, M/SEC                1926.4   2600.4
 Isp, M/SEC                 1026.9   2325.7


 MOLE FRACTIONS

 *CO              0.09434  0.08349  0.03567
 *CO2             0.10075  0.11388  0.17007
 *H               0.00814  0.00600  0.00050
 HNO              0.00001  0.00000  0.00000
 HO2              0.00003  0.00002  0.00000
 *H2              0.01953  0.01686  0.00810
 H2O              0.16287  0.17183  0.20228
 *N               0.00001  0.00000  0.00000
 *NO              0.01603  0.01221  0.00064
 NO2              0.00001  0.00001  0.00000
 *N2              0.54219  0.55053  0.57994
 *O               0.00652  0.00450  0.00007
 *OH              0.02831  0.02255  0.00193
 *O2              0.02124  0.01810  0.00079

  * THERMODYNAMIC PROPERTIES FITTED TO 20000.K

 NOTE. WEIGHT FRACTION OF FUEL IN TOTAL FUELS AND OF OXIDANT IN TOTAL OXIDANTS










              THEORETICAL ROCKET PERFORMANCE ASSUMING EQUILIBRIUM

           COMPOSITION DURING EXPANSION FROM INFINITE AREA COMBUSTOR

 Pin =   362.6 PSIA
 CASE =                

             REACTANT                    WT FRACTION      ENERGY      TEMP
                                          (SEE NOTE)     KJ/KG-MOL      K  
 FUEL        C32H66(a)                    0.9000000   -967800.000    298.150
 FUEL        stearic                      0.1000000   -912000.000    298.150
 OXIDANT     N2O(L),298.15K               1.0000000     65100.000    298.150

 O/F=    8.85710  %FUEL= 10.144972  R,EQ.RATIO= 1.052823  PHI,EQ.RATIO= 1.053007

                 CHAMBER   THROAT     EXIT
 Pinf/P            1.0000   1.7356   28.501
 P, BAR            25.000   14.405  0.87716
 T, K             3210.03  3031.79  2202.55
 RHO, KG/CU M    2.5353 0 1.5647 0 1.3691-1
 H, KJ/KG         1100.55   575.19 -1597.70
 U, KJ/KG          114.46  -345.40 -2238.39
 G, KJ/KG        -30225.2 -29011.1 -23091.8
 S, KJ/(KG)(K)     9.7587   9.7587   9.7587

 M, (1/n)          27.067   27.382   28.583
 (dLV/dLP)t      -1.01941 -1.01640 -1.00214
 (dLV/dLT)p        1.3948   1.3554   1.0659
 Cp, KJ/(KG)(K)    4.1202   3.9780   2.1387
 GAMMAs            1.1437   1.1413   1.1798
 SON VEL,M/SEC     1062.0   1025.0    869.4
 MACH NUMBER        0.000    1.000    2.672

 PERFORMANCE PARAMETERS

 Ae/At                      1.0000   5.0430
 CSTAR, M/SEC               1558.7   1558.7
 CF                         0.6576   1.4903
 Ivac, M/SEC                1923.1   2598.8
 Isp, M/SEC                 1025.0   2323.0


 MOLE FRACTIONS

 *CO              0.09083  0.07982  0.02946
 *CO2             0.10194  0.11520  0.17412
 *H               0.00785  0.00577  0.00049
 HNO              0.00001  0.00000  0.00000
 HO2              0.00003  0.00002  0.00000
 *H2              0.01844  0.01581  0.00645
 H2O              0.16155  0.17040  0.20147
 *N               0.00001  0.00000  0.00000
 *NO              0.01668  0.01280  0.00092
 NO2              0.00001  0.00001  0.00000
 *N2              0.54422  0.55261  0.58309
 *O               0.00674  0.00469  0.00011
 *OH              0.02862  0.02290  0.00240
 *O2              0.02305  0.01995  0.00149

  * THERMODYNAMIC PROPERTIES FITTED TO 20000.K

 NOTE. WEIGHT FRACTION OF FUEL IN TOTAL FUELS AND OF OXIDANT IN TOTAL OXIDANTS










              THEORETICAL ROCKET PERFORMANCE ASSUMING EQUILIBRIUM

           COMPOSITION DURING EXPANSION FROM INFINITE AREA COMBUSTOR

 Pin =   362.6 PSIA
 CASE =                

             REACTANT                    WT FRACTION      ENERGY      TEMP
                                          (SEE NOTE)     KJ/KG-MOL      K  
 FUEL        C32H66(a)                    0.9000000   -967800.000    298.150
 FUEL        stearic                      0.1000000   -912000.000    298.150
 OXIDANT     N2O(L),298.15K               1.0000000     65100.000    298.150

 O/F=    9.00000  %FUEL= 10.000000  R,EQ.RATIO= 1.036164  PHI,EQ.RATIO= 1.036288

                 CHAMBER   THROAT     EXIT
 Pinf/P            1.0000   1.7354   28.501
 P, BAR            25.000   14.406  0.87716
 T, K             3206.88  3029.03  2212.04
 RHO, KG/CU M    2.5441 0 1.5701 0 1.3679-1
 H, KJ/KG         1105.96   582.48 -1584.93
 U, KJ/KG          123.30  -334.99 -2226.19
 G, KJ/KG        -30122.7 -28914.3 -23125.8
 S, KJ/(KG)(K)     9.7380   9.7380   9.7380

 M, (1/n)          27.134   27.450   28.681
 (dLV/dLP)t      -1.01938 -1.01641 -1.00280
 (dLV/dLT)p        1.3945   1.3559   1.0856
 Cp, KJ/(KG)(K)    4.1127   3.9755   2.3056
 GAMMAs            1.1435   1.1411   1.1701
 SON VEL,M/SEC     1060.0   1023.2    866.2
 MACH NUMBER        0.000    1.000    2.678

 PERFORMANCE PARAMETERS

 Ae/At                      1.0000   5.0629
 CSTAR, M/SEC               1556.1   1556.1
 CF                         0.6575   1.4908
 Ivac, M/SEC                1919.9   2596.3
 Isp, M/SEC                 1023.2   2319.9


 MOLE FRACTIONS

 *CO              0.08747  0.07632  0.02406
 *CO2             0.10303  0.11639  0.17729
 *H               0.00757  0.00555  0.00046
 HNO              0.00001  0.00000  0.00000
 HO2              0.00004  0.00002  0.00000
 *H2              0.01744  0.01485  0.00511
 H2O              0.16021  0.16896  0.20030
 *N               0.00001  0.00000  0.00000
 *NO              0.01731  0.01338  0.00125
 NO2              0.00002  0.00001  0.00000
 *N2              0.54618  0.55462  0.58586
 *O               0.00694  0.00486  0.00016
 *OH              0.02889  0.02320  0.00286
 *O2              0.02489  0.02184  0.00264

  * THERMODYNAMIC PROPERTIES FITTED TO 20000.K

 NOTE. WEIGHT FRACTION OF FUEL IN TOTAL FUELS AND OF OXIDANT IN TOTAL OXIDANTS










              THEORETICAL ROCKET PERFORMANCE ASSUMING EQUILIBRIUM

           COMPOSITION DURING EXPANSION FROM INFINITE AREA COMBUSTOR

 Pin =   362.6 PSIA
 CASE =                

             REACTANT                    WT FRACTION      ENERGY      TEMP
                                          (SEE NOTE)     KJ/KG-MOL      K  
 FUEL        C32H66(a)                    0.9000000   -967800.000    298.150
 FUEL        stearic                      0.1000000   -912000.000    298.150
 OXIDANT     N2O(L),298.15K               1.0000000     65100.000    298.150

 O/F=    9.14290  %FUEL=  9.859113  R,EQ.RATIO= 1.020023  PHI,EQ.RATIO= 1.020091

                 CHAMBER   THROAT     EXIT
 Pinf/P            1.0000   1.7354   28.501
 P, BAR            25.000   14.406  0.87716
 T, K             3203.39  3025.80  2215.65
 RHO, KG/CU M    2.5530 0 1.5756 0 1.3695-1
 H, KJ/KG         1111.21   589.59 -1571.32
 U, KJ/KG          131.98  -324.74 -2211.83
 G, KJ/KG        -30018.7 -28814.6 -23102.5
 S, KJ/(KG)(K)     9.7178   9.7178   9.7178

 M, (1/n)          27.199   27.515   28.761
 (dLV/dLP)t      -1.01931 -1.01637 -1.00327
 (dLV/dLT)p        1.3934   1.3553   1.0992
 Cp, KJ/(KG)(K)    4.1006   3.9659   2.4182
 GAMMAs            1.1434   1.1410   1.1644
 SON VEL,M/SEC     1058.1   1021.4    863.6
 MACH NUMBER        0.000    1.000    2.682

 PERFORMANCE PARAMETERS

 Ae/At                      1.0000   5.0735
 CSTAR, M/SEC               1553.4   1553.4
 CF                         0.6575   1.4911
 Ivac, M/SEC                1916.6   2592.8
 Isp, M/SEC                 1021.4   2316.3


 MOLE FRACTIONS

 *CO              0.08423  0.07297  0.01959
 *CO2             0.10403  0.11747  0.17949
 *H               0.00730  0.00533  0.00042
 HNO              0.00001  0.00000  0.00000
 HO2              0.00004  0.00002  0.00000
 *H2              0.01651  0.01396  0.00407
 H2O              0.15888  0.16751  0.19882
 *N               0.00001  0.00000  0.00000
 *NO              0.01791  0.01393  0.00161
 NO2              0.00002  0.00001  0.00000
 *N2              0.54809  0.55656  0.58824
 *O               0.00712  0.00502  0.00021
 *OH              0.02910  0.02343  0.00327
 *O2              0.02676  0.02378  0.00429

  * THERMODYNAMIC PROPERTIES FITTED TO 20000.K

 NOTE. WEIGHT FRACTION OF FUEL IN TOTAL FUELS AND OF OXIDANT IN TOTAL OXIDANTS










              THEORETICAL ROCKET PERFORMANCE ASSUMING EQUILIBRIUM

           COMPOSITION DURING EXPANSION FROM INFINITE AREA COMBUSTOR

 Pin =   362.6 PSIA
 CASE =                

             REACTANT                    WT FRACTION      ENERGY      TEMP
                                          (SEE NOTE)     KJ/KG-MOL      K  
 FUEL        C32H66(a)                    0.9000000   -967800.000    298.150
 FUEL        stearic                      0.1000000   -912000.000    298.150
 OXIDANT     N2O(L),298.15K               1.0000000     65100.000    298.150

 O/F=    9.28570  %FUEL=  9.722236  R,EQ.RATIO= 1.004389  PHI,EQ.RATIO= 1.004404

                 CHAMBER   THROAT     EXIT
 Pinf/P            1.0000   1.7353   28.501
 P, BAR            25.000   14.406  0.87716
 T, K             3199.59  3022.16  2214.15
 RHO, KG/CU M    2.5619 0 1.5811 0 1.3735-1
 H, KJ/KG         1116.32   596.51 -1557.05
 U, KJ/KG          140.50  -314.64 -2195.68
 G, KJ/KG        -29913.5 -28712.5 -23029.9
 S, KJ/(KG)(K)     9.6980   9.6980   9.6980

 M, (1/n)          27.262   27.578   28.826
 (dLV/dLP)t      -1.01919 -1.01627 -1.00342
 (dLV/dLT)p        1.3916   1.3536   1.1037
 Cp, KJ/(KG)(K)    4.0845   3.9503   2.4518
 GAMMAs            1.1434   1.1410   1.1626
 SON VEL,M/SEC     1056.3   1019.6    861.7
 MACH NUMBER        0.000    1.000    2.683

 PERFORMANCE PARAMETERS

 Ae/At                      1.0000   5.0761
 CSTAR, M/SEC               1550.7   1550.7
 CF                         0.6575   1.4911
 Ivac, M/SEC                1913.2   2588.5
 Isp, M/SEC                 1019.6   2312.3


 MOLE FRACTIONS

 *CO              0.08113  0.06978  0.01597
 *CO2             0.10495  0.11845  0.18078
 *H               0.00703  0.00511  0.00037
 HNO              0.00001  0.00000  0.00000
 HO2              0.00004  0.00002  0.00000
 *H2              0.01564  0.01314  0.00327
 H2O              0.15754  0.16606  0.19710
 *N               0.00001  0.00000  0.00000
 *NO              0.01849  0.01446  0.00197
 NO2              0.00002  0.00001  0.00000
 *N2              0.54993  0.55843  0.59029
 *O               0.00728  0.00516  0.00025
 *OH              0.02927  0.02362  0.00357
 *O2              0.02866  0.02575  0.00641

  * THERMODYNAMIC PROPERTIES FITTED TO 20000.K

 NOTE. WEIGHT FRACTION OF FUEL IN TOTAL FUELS AND OF OXIDANT IN TOTAL OXIDANTS










              THEORETICAL ROCKET PERFORMANCE ASSUMING EQUILIBRIUM

           COMPOSITION DURING EXPANSION FROM INFINITE AREA COMBUSTOR

 Pin =   362.6 PSIA
 CASE =                

             REACTANT                    WT FRACTION      ENERGY      TEMP
                                          (SEE NOTE)     KJ/KG-MOL      K  
 FUEL        C32H66(a)                    0.9000000   -967800.000    298.150
 FUEL        stearic                      0.1000000   -912000.000    298.150
 OXIDANT     N2O(L),298.15K               1.0000000     65100.000    298.150

 O/F=    9.42860  %FUEL=  9.589015  R,EQ.RATIO= 0.989216  PHI,EQ.RATIO= 0.989181

                 CHAMBER   THROAT     EXIT
 Pinf/P            1.0000   1.7354   28.501
 P, BAR            25.000   14.406  0.87716
 T, K             3195.52  3018.13  2208.67
 RHO, KG/CU M    2.5709 0 1.5866 0 1.3794-1
 H, KJ/KG         1121.29   603.28 -1542.27
 U, KJ/KG          148.86  -304.70 -2178.16
 G, KJ/KG        -29807.2 -28608.3 -22919.4
 S, KJ/(KG)(K)     9.6787   9.6787   9.6787

 M, (1/n)          27.322   27.638   28.879
 (dLV/dLP)t      -1.01905 -1.01614 -1.00331
 (dLV/dLT)p        1.3891   1.3510   1.1005
 Cp, KJ/(KG)(K)    4.0649   3.9294   2.4213
 GAMMAs            1.1434   1.1410   1.1637
 SON VEL,M/SEC     1054.4   1017.9    860.2
 MACH NUMBER        0.000    1.000    2.683

 PERFORMANCE PARAMETERS

 Ae/At                      1.0000   5.0725
 CSTAR, M/SEC               1548.0   1548.0
 CF                         0.6575   1.4910
 Ivac, M/SEC                1909.9   2583.6
 Isp, M/SEC                 1017.9   2308.1


 MOLE FRACTIONS

 *CO              0.07814  0.06673  0.01308
 *CO2             0.10579  0.11932  0.18133
 *H               0.00677  0.00490  0.00033
 HNO              0.00001  0.00000  0.00000
 HO2              0.00004  0.00002  0.00000
 *H2              0.01483  0.01238  0.00265
 H2O              0.15621  0.16462  0.19523
 *N               0.00001  0.00000  0.00000
 *NO              0.01905  0.01496  0.00230
 NO2              0.00002  0.00001  0.00000
 *N2              0.55171  0.56024  0.59209
 *O               0.00743  0.00528  0.00029
 *OH              0.02940  0.02376  0.00378
 *O2              0.03058  0.02776  0.00892

  * THERMODYNAMIC PROPERTIES FITTED TO 20000.K

 NOTE. WEIGHT FRACTION OF FUEL IN TOTAL FUELS AND OF OXIDANT IN TOTAL OXIDANTS










              THEORETICAL ROCKET PERFORMANCE ASSUMING EQUILIBRIUM

           COMPOSITION DURING EXPANSION FROM INFINITE AREA COMBUSTOR

 Pin =   362.6 PSIA
 CASE =                

             REACTANT                    WT FRACTION      ENERGY      TEMP
                                          (SEE NOTE)     KJ/KG-MOL      K  
 FUEL        C32H66(a)                    0.9000000   -967800.000    298.150
 FUEL        stearic                      0.1000000   -912000.000    298.150
 OXIDANT     N2O(L),298.15K               1.0000000     65100.000    298.150

 O/F=    9.57140  %FUEL=  9.459485  R,EQ.RATIO= 0.974505  PHI,EQ.RATIO= 0.974423

                 CHAMBER   THROAT     EXIT
 Pinf/P            1.0000   1.7355   28.501
 P, BAR            25.000   14.405  0.87716
 T, K             3191.21  3013.77  2200.31
 RHO, KG/CU M    2.5798 0 1.5921 0 1.3867-1
 H, KJ/KG         1126.13   609.87 -1527.14
 U, KJ/KG          157.07  -294.91 -2159.68
 G, KJ/KG        -29700.3 -28502.5 -22781.7
 S, KJ/(KG)(K)     9.6598   9.6598   9.6598

 M, (1/n)          27.381   27.695   28.922
 (dLV/dLP)t      -1.01887 -1.01596 -1.00306
 (dLV/dLT)p        1.3860   1.3476   1.0931
 Cp, KJ/(KG)(K)    4.0422   3.9039   2.3553
 GAMMAs            1.1434   1.1412   1.1665
 SON VEL,M/SEC     1052.6   1016.1    859.0
 MACH NUMBER        0.000    1.000    2.682

 PERFORMANCE PARAMETERS

 Ae/At                      1.0000   5.0645
 CSTAR, M/SEC               1545.3   1545.3
 CF                         0.6576   1.4907
 Ivac, M/SEC                1906.6   2578.2
 Isp, M/SEC                 1016.1   2303.6


 MOLE FRACTIONS

 *CO              0.07528  0.06382  0.01077
 *CO2             0.10655  0.12010  0.18130
 *H               0.00652  0.00470  0.00028
 HNO              0.00001  0.00000  0.00000
 HO2              0.00004  0.00003  0.00000
 *H2              0.01408  0.01167  0.00218
 H2O              0.15489  0.16318  0.19327
 *N               0.00001  0.00000  0.00000
 *NO              0.01958  0.01544  0.00259
 NO2              0.00002  0.00001  0.00000
 *N2              0.55344  0.56199  0.59367
 *O               0.00756  0.00539  0.00031
 *OH              0.02949  0.02386  0.00390
 *O2              0.03251  0.02979  0.01172

  * THERMODYNAMIC PROPERTIES FITTED TO 20000.K

 NOTE. WEIGHT FRACTION OF FUEL IN TOTAL FUELS AND OF OXIDANT IN TOTAL OXIDANTS










              THEORETICAL ROCKET PERFORMANCE ASSUMING EQUILIBRIUM

           COMPOSITION DURING EXPANSION FROM INFINITE AREA COMBUSTOR

 Pin =   362.6 PSIA
 CASE =                

             REACTANT                    WT FRACTION      ENERGY      TEMP
                                          (SEE NOTE)     KJ/KG-MOL      K  
 FUEL        C32H66(a)                    0.9000000   -967800.000    298.150
 FUEL        stearic                      0.1000000   -912000.000    298.150
 OXIDANT     N2O(L),298.15K               1.0000000     65100.000    298.150

 O/F=    9.71430  %FUEL=  9.333321  R,EQ.RATIO= 0.960216  PHI,EQ.RATIO= 0.960089

                 CHAMBER   THROAT     EXIT
 Pinf/P            1.0000   1.7356   28.501
 P, BAR            25.000   14.404  0.87716
 T, K             3186.67  3009.10  2189.87
 RHO, KG/CU M    2.5888 0 1.5977 0 1.3950-1
 H, KJ/KG         1130.83   616.32 -1511.76
 U, KJ/KG          165.13  -285.28 -2140.53
 G, KJ/KG        -29592.8 -28395.3 -22625.0
 S, KJ/(KG)(K)     9.6413   9.6413   9.6413

 M, (1/n)          27.437   27.750   28.958
 (dLV/dLP)t      -1.01867 -1.01575 -1.00275
 (dLV/dLT)p        1.3825   1.3436   1.0839
 Cp, KJ/(KG)(K)    4.0168   3.8746   2.2755
 GAMMAs            1.1435   1.1414   1.1703
 SON VEL,M/SEC     1050.9   1014.4    857.8
 MACH NUMBER        0.000    1.000    2.680

 PERFORMANCE PARAMETERS

 Ae/At                      1.0000   5.0534
 CSTAR, M/SEC               1542.6   1542.6
 CF                         0.6576   1.4904
 Ivac, M/SEC                1903.2   2572.5
 Isp, M/SEC                 1014.4   2299.0


 MOLE FRACTIONS

 *CO              0.07253  0.06104  0.00891
 *CO2             0.10725  0.12078  0.18083
 *H               0.00628  0.00450  0.00024
 HNO              0.00001  0.00000  0.00000
 HO2              0.00004  0.00003  0.00000
 *H2              0.01338  0.01102  0.00180
 H2O              0.15357  0.16176  0.19125
 *N               0.00001  0.00000  0.00000
 *NO              0.02010  0.01590  0.00284
 NO2              0.00002  0.00001  0.00000
 *N2              0.55513  0.56369  0.59511
 *O               0.00768  0.00549  0.00033
 *OH              0.02954  0.02392  0.00394
 *O2              0.03447  0.03185  0.01475

  * THERMODYNAMIC PROPERTIES FITTED TO 20000.K

 NOTE. WEIGHT FRACTION OF FUEL IN TOTAL FUELS AND OF OXIDANT IN TOTAL OXIDANTS










              THEORETICAL ROCKET PERFORMANCE ASSUMING EQUILIBRIUM

           COMPOSITION DURING EXPANSION FROM INFINITE AREA COMBUSTOR

 Pin =   362.6 PSIA
 CASE =                

             REACTANT                    WT FRACTION      ENERGY      TEMP
                                          (SEE NOTE)     KJ/KG-MOL      K  
 FUEL        C32H66(a)                    0.9000000   -967800.000    298.150
 FUEL        stearic                      0.1000000   -912000.000    298.150
 OXIDANT     N2O(L),298.15K               1.0000000     65100.000    298.150

 O/F=    9.85710  %FUEL=  9.210563  R,EQ.RATIO= 0.946348  PHI,EQ.RATIO= 0.946180

                 CHAMBER   THROAT     EXIT
 Pinf/P            1.0000   1.7357   28.501
 P, BAR            25.000   14.403  0.87716
 T, K             3181.94  3004.17  2177.99
 RHO, KG/CU M    2.5977 0 1.6032 0 1.4041-1
 H, KJ/KG         1135.42   622.60 -1496.23
 U, KJ/KG          173.04  -275.80 -2120.95
 G, KJ/KG        -29485.1 -28287.1 -22455.5
[...]
 MACH NUMBER        0.000    1.000    2.674

 PERFORMANCE PARAMETERS

 Ae/At                      1.0000   4.9288
 CSTAR, M/SEC               1520.5   1520.5
 CF                         0.6587   1.4857
 Ivac, M/SEC                1876.6   2522.1
 Isp, M/SEC                 1001.6   2259.1


 MOLE FRACTIONS

 *CO              0.05401  0.04281  0.00223
 *CO2             0.11070  0.12368  0.17009
 *H               0.00461  0.00315  0.00006
 HNO              0.00001  0.00000  0.00000
 HO2              0.00005  0.00003  0.00000
 *H2              0.00911  0.00713  0.00047
 H2O              0.14346  0.15084  0.17519
 *N               0.00001  0.00000  0.00000
 *NO              0.02346  0.01882  0.00367
 NO2              0.00003  0.00002  0.00000
 *N2              0.56702  0.57558  0.60366
 N2O              0.00001  0.00000  0.00000
 *O               0.00816  0.00582  0.00026
 *OH              0.02898  0.02333  0.00305
 *O2              0.05038  0.04879  0.04131

  * THERMODYNAMIC PROPERTIES FITTED TO 20000.K

 NOTE. WEIGHT FRACTION OF FUEL IN TOTAL FUELS AND OF OXIDANT IN TOTAL OXIDANTS










              THEORETICAL ROCKET PERFORMANCE ASSUMING EQUILIBRIUM

           COMPOSITION DURING EXPANSION FROM INFINITE AREA COMBUSTOR

 Pin =   362.6 PSIA
 CASE =                

             REACTANT                    WT FRACTION      ENERGY      TEMP
                                          (SEE NOTE)     KJ/KG-MOL      K  
 FUEL        C32H66(a)                    0.9000000   -967800.000    298.150
 FUEL        stearic                      0.1000000   -912000.000    298.150
 OXIDANT     N2O(L),298.15K               1.0000000     65100.000    298.150

 O/F=   11.00000  %FUEL=  8.333333  R,EQ.RATIO= 0.848299  PHI,EQ.RATIO= 0.847872

                 CHAMBER   THROAT     EXIT
 Pinf/P            1.0000   1.7380   28.501
 P, BAR            25.000   14.384  0.87716
 T, K             3139.06  2957.71  2064.82
 RHO, KG/CU M    2.6687 0 1.6470 0 1.4875-1
 H, KJ/KG         1168.15   668.09 -1372.15
 U, KJ/KG          231.35  -205.27 -1961.85
 G, KJ/KG        -28625.6 -27404.4 -20970.0
 S, KJ/(KG)(K)     9.4913   9.4913   9.4913

 M, (1/n)          27.861   28.158   29.113
 (dLV/dLP)t      -1.01621 -1.01310 -1.00084
 (dLV/dLT)p        1.3370   1.2905   1.0275
 Cp, KJ/(KG)(K)    3.7192   3.5169   1.7679
 GAMMAs            1.1458   1.1451   1.2044
 SON VEL,M/SEC     1036.0   1000.1    842.8
 MACH NUMBER        0.000    1.000    2.675

 PERFORMANCE PARAMETERS

 Ae/At                      1.0000   4.9126
 CSTAR, M/SEC               1517.8   1517.8
 CF                         0.6589   1.4850
 Ivac, M/SEC                1873.4   2515.6
 Isp, M/SEC                 1000.1   2254.0


 MOLE FRACTIONS

 *CO              0.05208  0.04096  0.00190
 *CO2             0.11092  0.12377  0.16843
 *H               0.00444  0.00301  0.00005
 HNO              0.00001  0.00000  0.00000
 HO2              0.00005  0.00003  0.00000
 *H2              0.00870  0.00677  0.00041
 H2O              0.14226  0.14955  0.17328
 *NO              0.02379  0.01910  0.00367
 NO2              0.00003  0.00002  0.00000
 *N2              0.56834  0.57688  0.60451
 N2O              0.00001  0.00000  0.00000
 *O               0.00817  0.00581  0.00024
 *OH              0.02881  0.02315  0.00290
 *O2              0.05237  0.05093  0.04460

  * THERMODYNAMIC PROPERTIES FITTED TO 20000.K

 NOTE. WEIGHT FRACTION OF FUEL IN TOTAL FUELS AND OF OXIDANT IN TOTAL OXIDANTS










              THEORETICAL ROCKET PERFORMANCE ASSUMING EQUILIBRIUM

           COMPOSITION DURING EXPANSION FROM INFINITE AREA COMBUSTOR

 Pin =   362.6 PSIA
 CASE =                

             REACTANT                    WT FRACTION      ENERGY      TEMP
                                          (SEE NOTE)     KJ/KG-MOL      K  
 FUEL        C32H66(a)                    0.9000000   -967800.000    298.150
 FUEL        stearic                      0.1000000   -912000.000    298.150
 OXIDANT     N2O(L),298.15K               1.0000000     65100.000    298.150

 O/F=   11.14290  %FUEL=  8.235265  R,EQ.RATIO= 0.837450  PHI,EQ.RATIO= 0.836999

                 CHAMBER   THROAT     EXIT
 Pinf/P            1.0000   1.7384   28.501
 P, BAR            25.000   14.381  0.87716
 T, K             3133.26  2951.29  2050.40
 RHO, KG/CU M    2.6774 0 1.6524 0 1.4984-1
 H, KJ/KG         1171.81   673.24 -1357.06
 U, KJ/KG          238.07  -197.08 -1942.47
 G, KJ/KG        -28519.7 -27293.9 -20787.1
 S, KJ/(KG)(K)     9.4762   9.4762   9.4762

 M, (1/n)          27.900   28.195   29.122
 (dLV/dLP)t      -1.01590 -1.01276 -1.00074
 (dLV/dLT)p        1.3311   1.2838   1.0245
 Cp, KJ/(KG)(K)    3.6824   3.4728   1.7378
 GAMMAs            1.1461   1.1457   1.2073
 SON VEL,M/SEC     1034.5    998.6    840.7
 MACH NUMBER        0.000    1.000    2.675

 PERFORMANCE PARAMETERS

 Ae/At                      1.0000   4.8966
 CSTAR, M/SEC               1515.1   1515.1
 CF                         0.6591   1.4843
 Ivac, M/SEC                1870.1   2509.2
 Isp, M/SEC                  998.6   2248.9


 MOLE FRACTIONS

 *CO              0.05022  0.03919  0.00162
 *CO2             0.11109  0.12382  0.16675
 *H               0.00427  0.00287  0.00005
 HNO              0.00001  0.00000  0.00000
 HO2              0.00005  0.00003  0.00000
 *H2              0.00832  0.00643  0.00035
 H2O              0.14108  0.14827  0.17141
 *NO              0.02411  0.01936  0.00367
 NO2              0.00003  0.00002  0.00000
 *N2              0.56962  0.57816  0.60534
 N2O              0.00001  0.00000  0.00000
 *O               0.00817  0.00580  0.00023
 *OH              0.02864  0.02297  0.00275
 *O2              0.05436  0.05306  0.04784

  * THERMODYNAMIC PROPERTIES FITTED TO 20000.K

 NOTE. WEIGHT FRACTION OF FUEL IN TOTAL FUELS AND OF OXIDANT IN TOTAL OXIDANTS










              THEORETICAL ROCKET PERFORMANCE ASSUMING EQUILIBRIUM

           COMPOSITION DURING EXPANSION FROM INFINITE AREA COMBUSTOR

 Pin =   362.6 PSIA
 CASE =                

             REACTANT                    WT FRACTION      ENERGY      TEMP
                                          (SEE NOTE)     KJ/KG-MOL      K  
 FUEL        C32H66(a)                    0.9000000   -967800.000    298.150
 FUEL        stearic                      0.1000000   -912000.000    298.150
 OXIDANT     N2O(L),298.15K               1.0000000     65100.000    298.150

 O/F=   11.28570  %FUEL=  8.139544  R,EQ.RATIO= 0.826882  PHI,EQ.RATIO= 0.826408

                 CHAMBER   THROAT     EXIT
 Pinf/P            1.0000   1.7388   28.501
 P, BAR            25.000   14.378  0.87716
 T, K             3127.40  2944.77  2036.12
 RHO, KG/CU M    2.6861 0 1.6578 0 1.5093-1
 H, KJ/KG         1175.38   678.27 -1342.13
 U, KJ/KG          244.67  -189.02 -1923.31
 G, KJ/KG        -28414.5 -27183.7 -20606.9
 S, KJ/(KG)(K)     9.4615   9.4615   9.4615

 M, (1/n)          27.939   28.231   29.129
 (dLV/dLP)t      -1.01558 -1.01243 -1.00065
 (dLV/dLT)p        1.3252   1.2771   1.0218
 Cp, KJ/(KG)(K)    3.6455   3.4287   1.7110
 GAMMAs            1.1465   1.1463   1.2100
 SON VEL,M/SEC     1033.0    997.1    838.6
 MACH NUMBER        0.000    1.000    2.676

 PERFORMANCE PARAMETERS

 Ae/At                      1.0000   4.8809
 CSTAR, M/SEC               1512.4   1512.4
 CF                         0.6593   1.4836
 Ivac, M/SEC                1866.9   2502.9
 Isp, M/SEC                  997.1   2243.9


 MOLE FRACTIONS

 *CO              0.04843  0.03750  0.00138
 *CO2             0.11122  0.12382  0.16507
 *H               0.00411  0.00274  0.00004
 HNO              0.00001  0.00000  0.00000
 HO2              0.00005  0.00003  0.00000
 *H2              0.00796  0.00611  0.00030
 H2O              0.13992  0.14702  0.16957
 *NO              0.02442  0.01960  0.00365
 NO2              0.00003  0.00002  0.00000
 *N2              0.57088  0.57939  0.60614
 N2O              0.00001  0.00000  0.00000
 *O               0.00817  0.00578  0.00021
 *OH              0.02845  0.02277  0.00260
 *O2              0.05635  0.05519  0.05104

  * THERMODYNAMIC PROPERTIES FITTED TO 20000.K

 NOTE. WEIGHT FRACTION OF FUEL IN TOTAL FUELS AND OF OXIDANT IN TOTAL OXIDANTS










              THEORETICAL ROCKET PERFORMANCE ASSUMING EQUILIBRIUM

           COMPOSITION DURING EXPANSION FROM INFINITE AREA COMBUSTOR

 Pin =   362.6 PSIA
 CASE =                

             REACTANT                    WT FRACTION      ENERGY      TEMP
                                          (SEE NOTE)     KJ/KG-MOL      K  
 FUEL        C32H66(a)                    0.9000000   -967800.000    298.150
 FUEL        stearic                      0.1000000   -912000.000    298.150
 OXIDANT     N2O(L),298.15K               1.0000000     65100.000    298.150

 O/F=   11.42860  %FUEL=  8.045959  R,EQ.RATIO= 0.816571  PHI,EQ.RATIO= 0.816075

                 CHAMBER   THROAT     EXIT
 Pinf/P            1.0000   1.7392   28.501
 P, BAR            25.000   14.374  0.87716
 T, K             3121.47  2938.17  2022.01
 RHO, KG/CU M    2.6948 0 1.6632 0 1.5202-1
 H, KJ/KG         1178.87   683.21 -1327.33
 U, KJ/KG          251.15  -181.08 -1904.35
 G, KJ/KG        -28309.8 -27073.8 -20429.3
 S, KJ/(KG)(K)     9.4470   9.4470   9.4470

 M, (1/n)          27.976   28.265   29.136
 (dLV/dLP)t      -1.01527 -1.01210 -1.00058
 (dLV/dLT)p        1.3193   1.2703   1.0195
 Cp, KJ/(KG)(K)    3.6084   3.3847   1.6870
 GAMMAs            1.1469   1.1470   1.2125
 SON VEL,M/SEC     1031.5    995.7    836.4
 MACH NUMBER        0.000    1.000    2.677

 PERFORMANCE PARAMETERS

 Ae/At                      1.0000   4.8655
 CSTAR, M/SEC               1509.7   1509.7
 CF                         0.6595   1.4829
 Ivac, M/SEC                1863.7   2496.6
 Isp, M/SEC                  995.7   2238.8


 MOLE FRACTIONS

 *CO              0.04670  0.03588  0.00119
 *CO2             0.11132  0.12378  0.16339
 *H               0.00395  0.00262  0.00003
 HNO              0.00001  0.00000  0.00000
 HO2              0.00005  0.00003  0.00000
 *H2              0.00762  0.00581  0.00026
 H2O              0.13876  0.14578  0.16775
 *NO              0.02470  0.01983  0.00363
 NO2              0.00003  0.00002  0.00000
 *N2              0.57210  0.58060  0.60691
 N2O              0.00001  0.00000  0.00000
 *O               0.00816  0.00575  0.00020
 *OH              0.02824  0.02255  0.00246
 *O2              0.05832  0.05732  0.05418

  * THERMODYNAMIC PROPERTIES FITTED TO 20000.K

 NOTE. WEIGHT FRACTION OF FUEL IN TOTAL FUELS AND OF OXIDANT IN TOTAL OXIDANTS










              THEORETICAL ROCKET PERFORMANCE ASSUMING EQUILIBRIUM

           COMPOSITION DURING EXPANSION FROM INFINITE AREA COMBUSTOR

 Pin =   362.6 PSIA
 CASE =                

             REACTANT                    WT FRACTION      ENERGY      TEMP
                                          (SEE NOTE)     KJ/KG-MOL      K  
 FUEL        C32H66(a)                    0.9000000   -967800.000    298.150
 FUEL        stearic                      0.1000000   -912000.000    298.150
 OXIDANT     N2O(L),298.15K               1.0000000     65100.000    298.150

 O/F=   11.57140  %FUEL=  7.954564  R,EQ.RATIO= 0.806521  PHI,EQ.RATIO= 0.806004

                 CHAMBER   THROAT     EXIT
 Pinf/P            1.0000   1.7396   28.501
 P, BAR            25.000   14.371  0.87716
 T, K             3115.50  2931.49  2008.08
 RHO, KG/CU M    2.7034 0 1.6685 0 1.5310-1
 H, KJ/KG         1182.28   688.04 -1312.70
 U, KJ/KG          257.52  -173.27 -1885.62
 G, KJ/KG        -28205.7 -26964.3 -20254.7
 S, KJ/(KG)(K)     9.4329   9.4329   9.4329

 M, (1/n)          28.011   28.299   29.142
 (dLV/dLP)t      -1.01496 -1.01177 -1.00052
 (dLV/dLT)p        1.3134   1.2636   1.0175
 Cp, KJ/(KG)(K)    3.5713   3.3409   1.6654
 GAMMAs            1.1473   1.1476   1.2149
 SON VEL,M/SEC     1030.1    994.2    834.3
 MACH NUMBER        0.000    1.000    2.678

 PERFORMANCE PARAMETERS

 Ae/At                      1.0000   4.8504
 CSTAR, M/SEC               1507.1   1507.1
 CF                         0.6597   1.4822
 Ivac, M/SEC                1860.5   2490.3
 Isp, M/SEC                  994.2   2233.8


 MOLE FRACTIONS

 *CO              0.04505  0.03433  0.00102
 *CO2             0.11138  0.12370  0.16172
 *H               0.00380  0.00250  0.00003
 HNO              0.00001  0.00000  0.00000
 HO2              0.00005  0.00003  0.00000
 *H2              0.00729  0.00553  0.00023
 H2O              0.13763  0.14456  0.16597
 *NO              0.02498  0.02004  0.00359
 NO2              0.00004  0.00002  0.00000
 *N2              0.57329  0.58178  0.60766
 N2O              0.00001  0.00000  0.00000
 *O               0.00814  0.00572  0.00018
 *OH              0.02803  0.02233  0.00232
 *O2              0.06029  0.05944  0.05728

  * THERMODYNAMIC PROPERTIES FITTED TO 20000.K

 NOTE. WEIGHT FRACTION OF FUEL IN TOTAL FUELS AND OF OXIDANT IN TOTAL OXIDANTS










              THEORETICAL ROCKET PERFORMANCE ASSUMING EQUILIBRIUM

           COMPOSITION DURING EXPANSION FROM INFINITE AREA COMBUSTOR

 Pin =   362.6 PSIA
 CASE =                

             REACTANT                    WT FRACTION      ENERGY      TEMP
                                          (SEE NOTE)     KJ/KG-MOL      K  
 FUEL        C32H66(a)                    0.9000000   -967800.000    298.150
 FUEL        stearic                      0.1000000   -912000.000    298.150
 OXIDANT     N2O(L),298.15K               1.0000000     65100.000    298.150

 O/F=   11.71430  %FUEL=  7.865160  R,EQ.RATIO= 0.796708  PHI,EQ.RATIO= 0.796171

                 CHAMBER   THROAT     EXIT
 Pinf/P            1.0000   1.7401   28.501
 P, BAR            25.000   14.367  0.87716
 T, K             3109.47  2924.74  1994.35
 RHO, KG/CU M    2.7120 0 1.6738 0 1.5419-1
 H, KJ/KG         1185.62   692.78 -1298.22
 U, KJ/KG          263.79  -165.58 -1867.11
 G, KJ/KG        -28102.3 -26855.1 -20082.9
 S, KJ/(KG)(K)     9.4189   9.4189   9.4189

 M, (1/n)          28.046   28.331   29.148
 (dLV/dLP)t      -1.01464 -1.01145 -1.00046
 (dLV/dLT)p        1.3074   1.2569   1.0157
 Cp, KJ/(KG)(K)    3.5343   3.2974   1.6458
 GAMMAs            1.1478   1.1483   1.2171
 SON VEL,M/SEC     1028.6    992.8    832.1
 MACH NUMBER        0.000    1.000    2.679

 PERFORMANCE PARAMETERS

 Ae/At                      1.0000   4.8357
 CSTAR, M/SEC               1504.4   1504.4
 CF                         0.6599   1.4815
 Ivac, M/SEC                1857.4   2484.1
 Isp, M/SEC                  992.8   2228.8


 MOLE FRACTIONS

 *CO              0.04345  0.03285  0.00088
 *CO2             0.11141  0.12359  0.16007
 *H               0.00366  0.00239  0.00002
 HNO              0.00001  0.00000  0.00000
 HO2              0.00006  0.00004  0.00000
 *H2              0.00699  0.00526  0.00020
 H2O              0.13651  0.14336  0.16422
 *NO              0.02523  0.02024  0.00355
 NO2              0.00004  0.00003  0.00000
 *N2              0.57446  0.58292  0.60839
 N2O              0.00001  0.00000  0.00000
 *O               0.00811  0.00568  0.00017
 *OH              0.02781  0.02210  0.00219
 *O2              0.06226  0.06155  0.06032

  * THERMODYNAMIC PROPERTIES FITTED TO 20000.K

 NOTE. WEIGHT FRACTION OF FUEL IN TOTAL FUELS AND OF OXIDANT IN TOTAL OXIDANTS










              THEORETICAL ROCKET PERFORMANCE ASSUMING EQUILIBRIUM

           COMPOSITION DURING EXPANSION FROM INFINITE AREA COMBUSTOR

 Pin =   362.6 PSIA
 CASE =                

             REACTANT                    WT FRACTION      ENERGY      TEMP
                                          (SEE NOTE)     KJ/KG-MOL      K  
 FUEL        C32H66(a)                    0.9000000   -967800.000    298.150
 FUEL        stearic                      0.1000000   -912000.000    298.150
 OXIDANT     N2O(L),298.15K               1.0000000     65100.000    298.150

 O/F=   11.85710  %FUEL=  7.777804  R,EQ.RATIO= 0.787138  PHI,EQ.RATIO= 0.786583

                 CHAMBER   THROAT     EXIT
 Pinf/P            1.0000   1.7405   28.501
 P, BAR            25.000   14.364  0.87716
 T, K             3103.41  2917.93  1980.84
 RHO, KG/CU M    2.7205 0 1.6791 0 1.5526-1
 H, KJ/KG         1188.88   697.43 -1283.91
 U, KJ/KG          269.95  -158.00 -1848.85
 G, KJ/KG        -27999.5 -26746.5 -19914.2
 S, KJ/(KG)(K)     9.4053   9.4053   9.4053

 M, (1/n)          28.080   28.361   29.153
 (dLV/dLP)t      -1.01433 -1.01113 -1.00041
 (dLV/dLT)p        1.3015   1.2503   1.0142
 Cp, KJ/(KG)(K)    3.4974   3.2543   1.6281
 GAMMAs            1.1482   1.1490   1.2192
 SON VEL,M/SEC     1027.2    991.4    829.9
 MACH NUMBER        0.000    1.000    2.680

 PERFORMANCE PARAMETERS

 Ae/At                      1.0000   4.8212
 CSTAR, M/SEC               1501.8   1501.8
 CF                         0.6602   1.4808
 Ivac, M/SEC                1854.3   2477.9
 Isp, M/SEC                  991.4   2223.9


 MOLE FRACTIONS

 *CO              0.04191  0.03143  0.00075
 *CO2             0.11141  0.12343  0.15843
 *H               0.00352  0.00228  0.00002
 HO2              0.00006  0.00004  0.00000
 *H2              0.00670  0.00501  0.00017
 H2O              0.13541  0.14217  0.16250
 *NO              0.02548  0.02042  0.00351
 NO2              0.00004  0.00003  0.00000
 *N2              0.57560  0.58404  0.60910
 N2O              0.00001  0.00000  0.00000
 *O               0.00808  0.00564  0.00015
 *OH              0.02757  0.02185  0.00206
 *O2              0.06421  0.06365  0.06330

  * THERMODYNAMIC PROPERTIES FITTED TO 20000.K

 NOTE. WEIGHT FRACTION OF FUEL IN TOTAL FUELS AND OF OXIDANT IN TOTAL OXIDANTS










              THEORETICAL ROCKET PERFORMANCE ASSUMING EQUILIBRIUM

           COMPOSITION DURING EXPANSION FROM INFINITE AREA COMBUSTOR

 Pin =   362.6 PSIA
 CASE =                

             REACTANT                    WT FRACTION      ENERGY      TEMP
                                          (SEE NOTE)     KJ/KG-MOL      K  
 FUEL        C32H66(a)                    0.9000000   -967800.000    298.150
 FUEL        stearic                      0.1000000   -912000.000    298.150
 OXIDANT     N2O(L),298.15K               1.0000000     65100.000    298.150

 O/F=   12.00000  %FUEL=  7.692308  R,EQ.RATIO= 0.777789  PHI,EQ.RATIO= 0.777216

                 CHAMBER   THROAT     EXIT
 Pinf/P            1.0000   1.7410   28.501
 P, BAR            25.000   14.360  0.87716
 T, K             3097.31  2911.06  1967.54
 RHO, KG/CU M    2.7291 0 1.6844 0 1.5634-1
 H, KJ/KG         1192.07   701.98 -1269.76
 U, KJ/KG          276.01  -150.54 -1830.82
 G, KJ/KG        -27897.4 -26638.3 -19748.6
 S, KJ/(KG)(K)     9.3919   9.3919   9.3919

 M, (1/n)          28.112   28.391   29.157
 (dLV/dLP)t      -1.01402 -1.01081 -1.00037
 (dLV/dLT)p        1.2956   1.2437   1.0128
 Cp, KJ/(KG)(K)    3.4608   3.2117   1.6120
 GAMMAs            1.1487   1.1497   1.2211
 SON VEL,M/SEC     1025.8    990.0    827.7
 MACH NUMBER        0.000    1.000    2.681

 PERFORMANCE PARAMETERS

 Ae/At                      1.0000   4.8072
 CSTAR, M/SEC               1499.1   1499.1
 CF                         0.6604   1.4801
 Ivac, M/SEC                1851.1   2471.8
 Isp, M/SEC                  990.0   2218.9


 MOLE FRACTIONS

 *CO              0.04043  0.03007  0.00065
 *CO2             0.11138  0.12325  0.15681
 *H               0.00339  0.00218  0.00002
 HO2              0.00006  0.00004  0.00000
 *H2              0.00642  0.00477  0.00015
 H2O              0.13432  0.14100  0.16081
 *NO              0.02570  0.02059  0.00346
 NO2              0.00004  0.00003  0.00000
 *N2              0.57671  0.58513  0.60979
 N2O              0.00001  0.00000  0.00000
 *O               0.00804  0.00559  0.00014
 *OH              0.02733  0.02160  0.00194
 *O2              0.06615  0.06574  0.06623

  * THERMODYNAMIC PROPERTIES FITTED TO 20000.K

 NOTE. WEIGHT FRACTION OF FUEL IN TOTAL FUELS AND OF OXIDANT IN TOTAL OXIDANTS



